=== Block 08: Mode Control ===
Run started: Sun Mar 29 21:16:23 UTC 2026

--- Running tb_mc_ramp_normal.spice ---
Using SPARSE 1.3 as Direct Linear Solver

Note: No compatibility mode selected!


Circuit: * testbench: mode control — normal ramp (1 v/µs)

Doing analysis at TEMP = 27.000000 and TNOM = 27.000000

Using transient initial conditions
 Reference value :  1.00000e-10 Reference value :  2.50409e-06 Reference value :  4.44306e-06 Reference value :  7.86256e-06
No. of Data Rows : 1322
thresh_por_v        =  2.507080e+00
thresh_ret_v        =  4.158363e+00
thresh_pup_v        =  4.439253e+00
thresh_act_v        =  5.519689e+00
thresh_por_V: 2.50708
thresh_ret_V: 4.15836
thresh_pup_V: 4.43925
thresh_act_V: 5.51969
thresh_max_error_pct: 1.43413
monotonic: 1

Error: measure  g_by3  find(AT) : out of interval
 meas tran g_by3 find v(bvdd) when v(bypass_en)=2.5 rise=3 td=2u failed!


Error: measure  g_ea3  find(AT) : out of interval
 meas tran g_ea3 find v(bvdd) when v(ea_en)=2.5 rise=3 td=2u failed!


Error: measure  g_rs2  find(AT) : out of interval
 meas tran g_rs2 find v(bvdd) when v(ref_sel)=2.5 rise=2 td=2u failed!


Error: measure  g_uv2  find(AT) : out of interval
 meas tran g_uv2 find v(bvdd) when v(uvov_en)=2.5 rise=2 td=2u failed!


Error: measure  g_po2  find(AT) : out of interval
 meas tran g_po2 find v(bvdd) when v(pass_off)=2.5 fall=2 td=2u failed!

glitch_free: 1
Note: Simulation executed from .control section 

--- Running tb_mc_fast_ramp.spice ---
Using SPARSE 1.3 as Direct Linear Solver

Note: No compatibility mode selected!


Circuit: * testbench: mode control — fast ramp (12 v/us)

Doing analysis at TEMP = 27.000000 and TNOM = 27.000000

Using transient initial conditions
 Reference value :  1.00000e-11 Reference value :  2.45250e-07 Reference value :  4.85061e-07 Reference value :  8.54874e-07
No. of Data Rows : 1093
th1                 =  2.749101e+00
th2                 =  4.480320e+00
th3                 =  4.761869e+00
th4                 =  5.841748e+00
fast_th1: 2.7491
fast_th2: 4.48032
fast_th3: 4.76187
fast_th4: 5.84175
fast_max_err: 9.96404
works_fast_ramp: 1
Note: Simulation executed from .control section 

--- Running tb_mc_slow_ramp.spice ---
Using SPARSE 1.3 as Direct Linear Solver

Note: No compatibility mode selected!


Circuit: * testbench: mode control — slow ramp (0.1 v/us)

Doing analysis at TEMP = 27.000000 and TNOM = 27.000000

Using transient initial conditions
 Reference value :  1.00000e-09 Reference value :  1.74568e-05 Reference value :  3.77121e-05 Reference value :  5.45925e-05 Reference value :  8.56464e-05
No. of Data Rows : 1235
th1                 =  2.453922e+00
th2                 =  4.097503e+00
th3                 =  4.381021e+00
th4                 =  5.458784e+00
slow_th1: 2.45392
slow_th2: 4.0975
slow_th3: 4.38102
slow_th4: 5.45878

Error: measure  g_by3  find(AT) : out of interval
 meas tran g_by3 find v(bvdd) when v(bypass_en)=2.5 rise=3 td=5u failed!


Error: measure  g_ea3  find(AT) : out of interval
 meas tran g_ea3 find v(bvdd) when v(ea_en)=2.5 rise=3 td=5u failed!


Error: measure  g_uv2  find(AT) : out of interval
Warning from checkvalid: vector g_by3 is not available or has zero length.
Warning from checkvalid: vector g_ea3 is not available or has zero length.
Warning from checkvalid: vector g_uv2 is not available or has zero length.
 meas tran g_uv2 find v(bvdd) when v(uvov_en)=2.5 rise=2 td=5u failed!

works_slow_ramp: 1
Note: Simulation executed from .control section 

--- Running tb_mc_power_down.spice ---
Using SPARSE 1.3 as Direct Linear Solver

Note: No compatibility mode selected!


Circuit: * testbench: mode control — power down (bvdd 10.5v to 0v at 1v/us)

Doing analysis at TEMP = 27.000000 and TNOM = 27.000000


Initial Transient Solution
--------------------------

Node                                   Voltage
----                                   -------
bvdd                                      10.5
pvdd                                         5
svdd                                       2.2
vref                                     1.226
en_ret                                       0
xdut.xrtop.t1                          10.4979
xdut.xrtop.t2                          8.46383
xdut.tap1                              8.46176
xdut.xr12.t1                            8.4597
xdut.xr12.t2                           5.05347
xdut.tap2                              5.05141
xdut.xr23.t1                           5.04934
xdut.xr23.t2                           4.72289
xdut.tap3                              4.72082
xdut.xr34.t1                           4.71876
xdut.xr34.t2                            3.7882
xdut.tap4                              3.78614
xdut.xrbot.t1                          3.78407
xdut.xrbot.t2                       0.00206709
xdut.c1inv                         1.42555e-06
xdut.comp1                                   5
xdut.c2inv                         1.49903e-08
xdut.comp2                                   5
xdut.c3inv                         1.48671e-08
xdut.comp3                                   5
xdut.c4inv                          0.00615307
xdut.comp4                                   5
xdut.comp1b                        1.52646e-08
xdut.comp2b                        1.52646e-08
xdut.comp3b                        1.52646e-08
xdut.comp4b                        1.52646e-08
pass_off                                     5
xdut.by_s1                         1.44953e-08
xdut.bypass_enb                              5
xdut.by_s2                         1.44953e-08
xdut.by_pmid                                 5
bypass_en                          1.52646e-08
xdut.ea_s1                         1.43078e-16
xdut.ea_enb                        1.52646e-08
xdut.ea_pmid                                 5
ea_en                                        5
xdut.rs_s1                         1.44953e-08
xdut.ref_selb                                5
ref_sel                            1.52646e-08
xdut.uvov_enb                      1.52646e-08
uvov_en                                      5
xdut.ilim_enb                      1.52646e-08
ilim_en                                      5
ven#branch                                   0
vref#branch                                  0
vsvdd#branch                                 0
vpvdd#branch                      -1.77077e-06
vbvdd#branch                      -2.58787e-05

 Reference value :  0.00000e+00 Reference value :  3.26280e-06 Reference value :  5.23671e-06 Reference value :  7.15737e-06 Reference value :  9.84986e-06
No. of Data Rows : 1299
th4f                =  5.286037e+00
th3f                =  4.210051e+00
th2f                =  3.916116e+00
th1f                =  2.282704e+00
power_down_correct: 1
Note: Simulation executed from .control section 

--- Running tb_mc_hysteresis.spice ---
Using SPARSE 1.3 as Direct Linear Solver

Note: No compatibility mode selected!


Circuit: * testbench: mode control — hysteresis (triangle ramp up/down)

Doing analysis at TEMP = 27.000000 and TNOM = 27.000000

Using transient initial conditions
 Reference value :  1.00000e-10 Reference value :  3.14707e-06 Reference value :  5.52485e-06 Reference value :  9.68256e-06 Reference value :  1.39350e-05 Reference value :  1.67976e-05 Reference value :  1.95340e-05
No. of Data Rows : 2418
th1r                =  2.506849e+00
th2r                =  4.159613e+00
th3r                =  4.442734e+00
th4r                =  5.520964e+00
th1f                =  2.282847e+00
th2f                =  3.916115e+00
th3f                =  4.210057e+00
th4f                =  5.286002e+00
hyst1_mV: 0.224002
hyst2_mV: 0.243498
hyst3_mV: 0.232677
hyst4_mV: 0.234962
hysteresis_min_mV: 224.002
hysteresis_max_mV: 243.498
Note: Simulation executed from .control section 

--- Running tb_mc_iq.spice ---
Using SPARSE 1.3 as Direct Linear Solver

Note: No compatibility mode selected!


Circuit: * testbench: mode control — quiescent current

Doing analysis at TEMP = 27.000000 and TNOM = 27.000000

Using transient initial conditions
 Reference value :  1.00000e-10 Reference value :  1.07940e-07 Reference value :  3.47785e-06 Reference value :  7.25785e-06 Reference value :  1.12179e-05 Reference value :  1.45579e-05
No. of Data Rows : 1651
iq_val              =  -1.726334e-05 from=  1.000000e-05 to=  1.400785e-05
iq_active_uA: 17.2633
Note: Simulation executed from .control section 

--- Running tb_mc_pvt.spice ---
Running TT corner...
Running SS corner...
Running FF corner...
Running SF corner...
Running FS corner...
  TT: POR=2.507V  RET=4.158V  PUP=4.439V  ACT=5.520V  max_err=1.43%
  SS: POR=2.508V  RET=4.159V  PUP=4.439V  ACT=5.519V  max_err=1.45%
  FF: POR=2.502V  RET=4.152V  PUP=4.432V  ACT=5.512V  max_err=1.58%
  SF: POR=2.342V  RET=3.881V  PUP=4.143V  ACT=5.149V  max_err=8.05%
  FS: POR=2.672V  RET=4.436V  PUP=4.735V  ACT=5.890V  max_err=6.89%
thresh_max_error_pct: 8.0488
Note: No ".plot", ".print", or ".fourier" lines; no simulations run

Note: No compatibility mode selected!


Circuit: * testbench: mode control — pvt (all 5 corners)

WARNING: tb_mc_pvt.spice exited with code 1

--- Evaluation ---
---
* thresh_max_error_pct                  8.049  pct       (spec <= 15.0)  PASS
  thresh_por_V                          2.507  V         (spec >= 2.3)  PASS
  thresh_por_V_max                      2.507  V         (spec <= 2.7)  PASS
  thresh_ret_V                          4.158  V         (spec >= 4.0)  PASS
  thresh_ret_V_max                      4.158  V         (spec <= 4.4)  PASS
  thresh_pup_V                          4.439  V         (spec >= 4.3)  PASS
  thresh_pup_V_max                      4.439  V         (spec <= 4.7)  PASS
  thresh_act_V                           5.52  V         (spec >= 5.4)  PASS
  thresh_act_V_max                       5.52  V         (spec <= 5.8)  PASS
  hysteresis_min_mV                       224  mV        (spec >= 150.0)  PASS
  hysteresis_max_mV                     243.5  mV        (spec <= 250.0)  PASS
  monotonic                                 1  bool      (spec >= 1.0)  PASS
  glitch_free                               1  bool      (spec >= 1.0)  PASS
  works_fast_ramp                           1  bool      (spec >= 1.0)  PASS
  works_slow_ramp                           1  bool      (spec >= 1.0)  PASS
  iq_active_uA                          17.26  uA        (spec <= 20.0)  PASS
specs_pass: 16/16
primary (thresh_max_error_pct): 8.0488

Run finished: Sun Mar 29 21:16:38 UTC 2026
