Using SPARSE 1.3 as Direct Linear Solver
Using SPARSE 1.3 as Direct Linear Solver
Using SPARSE 1.3 as Direct Linear Solver
Using SPARSE 1.3 as Direct Linear Solver
Using SPARSE 1.3 as Direct Linear Solver
Using SPARSE 1.3 as Direct Linear Solver
Using SPARSE 1.3 as Direct Linear Solver
Using SPARSE 1.3 as Direct Linear Solver
Using SPARSE 1.3 as Direct Linear Solver
Using SPARSE 1.3 as Direct Linear Solver
Using SPARSE 1.3 as Direct Linear Solver
Using SPARSE 1.3 as Direct Linear Solver
Using SPARSE 1.3 as Direct Linear Solver
Using SPARSE 1.3 as Direct Linear Solver
Using SPARSE 1.3 as Direct Linear Solver
Using SPARSE 1.3 as Direct Linear Solver
Using SPARSE 1.3 as Direct Linear Solver
Using SPARSE 1.3 as Direct Linear Solver
Using SPARSE 1.3 as Direct Linear Solver
Using SPARSE 1.3 as Direct Linear Solver
Using SPARSE 1.3 as Direct Linear Solver
Using SPARSE 1.3 as Direct Linear Solver

Note: No compatibility mode selected!


Circuit: *include "sky130_res_models.spice

Reset re-loads circuit *include "sky130_res_models.spice

Circuit: *include "sky130_res_models.spice

Doing analysis at TEMP = 27.000000 and TNOM = 27.000000


No. of Data Rows : 1
Reset re-loads circuit *include "sky130_res_models.spice

Circuit: *include "sky130_res_models.spice

Doing analysis at TEMP = 27.000000 and TNOM = 27.000000


No. of Data Rows : 1
Reset re-loads circuit *include "sky130_res_models.spice

Circuit: *include "sky130_res_models.spice

Doing analysis at TEMP = 27.000000 and TNOM = 27.000000


No. of Data Rows : 1
Reset re-loads circuit *include "sky130_res_models.spice

Circuit: *include "sky130_res_models.spice

Doing analysis at TEMP = 27.000000 and TNOM = 27.000000


No. of Data Rows : 1
Reset re-loads circuit *include "sky130_res_models.spice

Circuit: *include "sky130_res_models.spice

Doing analysis at TEMP = 27.000000 and TNOM = 27.000000


No. of Data Rows : 1
Reset re-loads circuit *include "sky130_res_models.spice

Circuit: *include "sky130_res_models.spice

Doing analysis at TEMP = 27.000000 and TNOM = 27.000000


No. of Data Rows : 1
Reset re-loads circuit *include "sky130_res_models.spice

Circuit: *include "sky130_res_models.spice

Doing analysis at TEMP = 27.000000 and TNOM = 27.000000


No. of Data Rows : 1
Reset re-loads circuit *include "sky130_res_models.spice

Circuit: *include "sky130_res_models.spice

Doing analysis at TEMP = 27.000000 and TNOM = 27.000000


No. of Data Rows : 1
Reset re-loads circuit *include "sky130_res_models.spice

Circuit: *include "sky130_res_models.spice

Doing analysis at TEMP = 27.000000 and TNOM = 27.000000


No. of Data Rows : 1
Reset re-loads circuit *include "sky130_res_models.spice

Circuit: *include "sky130_res_models.spice

Doing analysis at TEMP = 27.000000 and TNOM = 27.000000


No. of Data Rows : 1
Reset re-loads circuit *include "sky130_res_models.spice

Circuit: *include "sky130_res_models.spice

Doing analysis at TEMP = 27.000000 and TNOM = 27.000000


No. of Data Rows : 1
Reset re-loads circuit *include "sky130_res_models.spice

Circuit: *include "sky130_res_models.spice

Doing analysis at TEMP = 27.000000 and TNOM = 27.000000


No. of Data Rows : 1
Reset re-loads circuit *include "sky130_res_models.spice

Circuit: *include "sky130_res_models.spice

Doing analysis at TEMP = 27.000000 and TNOM = 27.000000


No. of Data Rows : 1
Reset re-loads circuit *include "sky130_res_models.spice

Circuit: *include "sky130_res_models.spice

Doing analysis at TEMP = 27.000000 and TNOM = 27.000000


No. of Data Rows : 1
Reset re-loads circuit *include "sky130_res_models.spice

Circuit: *include "sky130_res_models.spice

Doing analysis at TEMP = 27.000000 and TNOM = 27.000000


No. of Data Rows : 1
Reset re-loads circuit *include "sky130_res_models.spice

Circuit: *include "sky130_res_models.spice

Doing analysis at TEMP = 27.000000 and TNOM = 27.000000


No. of Data Rows : 1
Reset re-loads circuit *include "sky130_res_models.spice

Circuit: *include "sky130_res_models.spice

Doing analysis at TEMP = 27.000000 and TNOM = 27.000000


No. of Data Rows : 1
Reset re-loads circuit *include "sky130_res_models.spice

Circuit: *include "sky130_res_models.spice

Doing analysis at TEMP = 27.000000 and TNOM = 27.000000


No. of Data Rows : 1
Reset re-loads circuit *include "sky130_res_models.spice

Circuit: *include "sky130_res_models.spice

Doing analysis at TEMP = 27.000000 and TNOM = 27.000000


No. of Data Rows : 1
Reset re-loads circuit *include "sky130_res_models.spice

Circuit: *include "sky130_res_models.spice

Doing analysis at TEMP = 27.000000 and TNOM = 27.000000


No. of Data Rows : 1
Reset re-loads circuit *include "sky130_res_models.spice

Circuit: *include "sky130_res_models.spice

Doing analysis at TEMP = 27.000000 and TNOM = 27.000000


No. of Data Rows : 1
Reset re-loads circuit *include "sky130_res_models.spice

Circuit: *include "sky130_res_models.spice

Doing analysis at TEMP = 27.000000 and TNOM = 27.000000


No. of Data Rows : 1
Reset re-loads circuit *incluUsing SPARSE 1.3 as Direct Linear Solver
Using SPARSE 1.3 as Direct Linear Solver
Using SPARSE 1.3 as Direct Linear Solver
Using SPARSE 1.3 as Direct Linear Solver
Using SPARSE 1.3 as Direct Linear Solver
Using SPARSE 1.3 as Direct Linear Solver
Using SPARSE 1.3 as Direct Linear Solver
Using SPARSE 1.3 as Direct Linear Solver
Using SPARSE 1.3 as Direct Linear Solver
Using SPARSE 1.3 as Direct Linear Solver
Using SPARSE 1.3 as Direct Linear Solver
Using SPARSE 1.3 as Direct Linear Solver
Using SPARSE 1.3 as Direct Linear Solver
Using SPARSE 1.3 as Direct Linear Solver
Using SPARSE 1.3 as Direct Linear Solver
Using SPARSE 1.3 as Direct Linear Solver
Using SPARSE 1.3 as Direct Linear Solver
Using SPARSE 1.3 as Direct Linear Solver
Using SPARSE 1.3 as Direct Linear Solver
Using SPARSE 1.3 as Direct Linear Solver
Using SPARSE 1.3 as Direct Linear Solver
Using SPARSE 1.3 as Direct Linear Solver
de "sky130_res_models.spice

Circuit: *include "sky130_res_models.spice

Doing analysis at TEMP = 27.000000 and TNOM = 27.000000


No. of Data Rows : 1
Reset re-loads circuit *include "sky130_res_models.spice

Circuit: *include "sky130_res_models.spice

Doing analysis at TEMP = 27.000000 and TNOM = 27.000000


No. of Data Rows : 1
Reset re-loads circuit *include "sky130_res_models.spice

Circuit: *include "sky130_res_models.spice

Doing analysis at TEMP = 27.000000 and TNOM = 27.000000


No. of Data Rows : 1
Reset re-loads circuit *include "sky130_res_models.spice

Circuit: *include "sky130_res_models.spice

Doing analysis at TEMP = 27.000000 and TNOM = 27.000000


No. of Data Rows : 1
Reset re-loads circuit *include "sky130_res_models.spice

Circuit: *include "sky130_res_models.spice

Doing analysis at TEMP = 27.000000 and TNOM = 27.000000


No. of Data Rows : 1
Reset re-loads circuit *include "sky130_res_models.spice

Circuit: *include "sky130_res_models.spice

Doing analysis at TEMP = 27.000000 and TNOM = 27.000000


No. of Data Rows : 1
Reset re-loads circuit *include "sky130_res_models.spice

Circuit: *include "sky130_res_models.spice

Doing analysis at TEMP = 27.000000 and TNOM = 27.000000


No. of Data Rows : 1
Reset re-loads circuit *include "sky130_res_models.spice

Circuit: *include "sky130_res_models.spice

Doing analysis at TEMP = 27.000000 and TNOM = 27.000000


No. of Data Rows : 1
Reset re-loads circuit *include "sky130_res_models.spice

Circuit: *include "sky130_res_models.spice

Doing analysis at TEMP = 27.000000 and TNOM = 27.000000


No. of Data Rows : 1
Reset re-loads circuit *include "sky130_res_models.spice

Circuit: *include "sky130_res_models.spice

Doing analysis at TEMP = 27.000000 and TNOM = 27.000000


No. of Data Rows : 1
Reset re-loads circuit *include "sky130_res_models.spice

Circuit: *include "sky130_res_models.spice

Doing analysis at TEMP = 27.000000 and TNOM = 27.000000


No. of Data Rows : 1
Reset re-loads circuit *include "sky130_res_models.spice

Circuit: *include "sky130_res_models.spice

Doing analysis at TEMP = 27.000000 and TNOM = 27.000000


No. of Data Rows : 1
Reset re-loads circuit *include "sky130_res_models.spice

Circuit: *include "sky130_res_models.spice

Doing analysis at TEMP = 27.000000 and TNOM = 27.000000


No. of Data Rows : 1
Reset re-loads circuit *include "sky130_res_models.spice

Circuit: *include "sky130_res_models.spice

Doing analysis at TEMP = 27.000000 and TNOM = 27.000000


No. of Data Rows : 1
Reset re-loads circuit *include "sky130_res_models.spice

Circuit: *include "sky130_res_models.spice

Doing analysis at TEMP = 27.000000 and TNOM = 27.000000


No. of Data Rows : 1
Reset re-loads circuit *include "sky130_res_models.spice

Circuit: *include "sky130_res_models.spice

Doing analysis at TEMP = 27.000000 and TNOM = 27.000000


No. of Data Rows : 1
Reset re-loads circuit *include "sky130_res_models.spice

Circuit: *include "sky130_res_models.spice

Doing analysis at TEMP = 27.000000 and TNOM = 27.000000


No. of Data Rows : 1
Reset re-loads circuit *include "sky130_res_models.spice

Circuit: *include "sky130_res_models.spice

Doing analysis at TEMP = 27.000000 and TNOM = 27.000000


No. of Data Rows : 1
Reset re-loads circuit *include "sky130_res_models.spice

Circuit: *include "sky130_res_models.spice

Doing analysis at TEMP = 27.000000 and TNOM = 27.000000


No. of Data Rows : 1
Reset re-loads circuit *include "sky130_res_models.spice

Circuit: *include "sky130_res_models.spice

Doing analysis at TEMP = 27.000000 and TNOM = 27.000000


No. of Data Rows : 1
Reset re-loads circuit *include "sky130_res_models.spice

Circuit: *include "sky130_res_models.spice

Doing analysis at TEMP = 27.000000 and TNOM = 27.000000


No. of Data Rows : 1
Reset re-loads circuit *include "sky130_res_models.spice

Circuit: *include "sky130_res_models.spice

Doing analysis at TEMP = 27.000000 and TNOM = 27.000000


No. of Data Rows : 1
Reset re-loads circuit *include "sky130_res_models.spice

Circuit: *include "sky130_res_models.spice

Doing analysis at TEMP = 27.000000 and TNUsing SPARSE 1.3 as Direct Linear Solver
Using SPARSE 1.3 as Direct Linear Solver
Using SPARSE 1.3 as Direct Linear Solver
Using SPARSE 1.3 as Direct Linear Solver
Using SPARSE 1.3 as Direct Linear Solver
Using SPARSE 1.3 as Direct Linear Solver
Using SPARSE 1.3 as Direct Linear Solver
Using SPARSE 1.3 as Direct Linear Solver
Using SPARSE 1.3 as Direct Linear Solver
Using SPARSE 1.3 as Direct Linear Solver
Using SPARSE 1.3 as Direct Linear Solver
Using SPARSE 1.3 as Direct Linear Solver
Using SPARSE 1.3 as Direct Linear Solver
Using SPARSE 1.3 as Direct Linear Solver
Using SPARSE 1.3 as Direct Linear Solver
Using SPARSE 1.3 as Direct Linear Solver
Using SPARSE 1.3 as Direct Linear Solver
Using SPARSE 1.3 as Direct Linear Solver
Using SPARSE 1.3 as Direct Linear Solver
Using SPARSE 1.3 as Direct Linear Solver
Using SPARSE 1.3 as Direct Linear Solver
Using SPARSE 1.3 as Direct Linear Solver
Using SPARSE 1.3 as Direct Linear Solver
OM = 27.000000


No. of Data Rows : 1
Reset re-loads circuit *include "sky130_res_models.spice

Circuit: *include "sky130_res_models.spice

Doing analysis at TEMP = 27.000000 and TNOM = 27.000000


No. of Data Rows : 1
Reset re-loads circuit *include "sky130_res_models.spice

Circuit: *include "sky130_res_models.spice

Doing analysis at TEMP = 27.000000 and TNOM = 27.000000


No. of Data Rows : 1
Reset re-loads circuit *include "sky130_res_models.spice

Circuit: *include "sky130_res_models.spice

Doing analysis at TEMP = 27.000000 and TNOM = 27.000000


No. of Data Rows : 1
Reset re-loads circuit *include "sky130_res_models.spice

Circuit: *include "sky130_res_models.spice

Doing analysis at TEMP = 27.000000 and TNOM = 27.000000


No. of Data Rows : 1
Reset re-loads circuit *include "sky130_res_models.spice

Circuit: *include "sky130_res_models.spice

Doing analysis at TEMP = 27.000000 and TNOM = 27.000000


No. of Data Rows : 1
Reset re-loads circuit *include "sky130_res_models.spice

Circuit: *include "sky130_res_models.spice

Doing analysis at TEMP = 27.000000 and TNOM = 27.000000


No. of Data Rows : 1
Reset re-loads circuit *include "sky130_res_models.spice

Circuit: *include "sky130_res_models.spice

Doing analysis at TEMP = 27.000000 and TNOM = 27.000000


No. of Data Rows : 1
Reset re-loads circuit *include "sky130_res_models.spice

Circuit: *include "sky130_res_models.spice

Doing analysis at TEMP = 27.000000 and TNOM = 27.000000


No. of Data Rows : 1
Reset re-loads circuit *include "sky130_res_models.spice

Circuit: *include "sky130_res_models.spice

Doing analysis at TEMP = 27.000000 and TNOM = 27.000000


No. of Data Rows : 1
Reset re-loads circuit *include "sky130_res_models.spice

Circuit: *include "sky130_res_models.spice

Doing analysis at TEMP = 27.000000 and TNOM = 27.000000


No. of Data Rows : 1
Reset re-loads circuit *include "sky130_res_models.spice

Circuit: *include "sky130_res_models.spice

Doing analysis at TEMP = 27.000000 and TNOM = 27.000000


No. of Data Rows : 1
Reset re-loads circuit *include "sky130_res_models.spice

Circuit: *include "sky130_res_models.spice

Doing analysis at TEMP = 27.000000 and TNOM = 27.000000


No. of Data Rows : 1
Reset re-loads circuit *include "sky130_res_models.spice

Circuit: *include "sky130_res_models.spice

Doing analysis at TEMP = 27.000000 and TNOM = 27.000000


No. of Data Rows : 1
Reset re-loads circuit *include "sky130_res_models.spice

Circuit: *include "sky130_res_models.spice

Doing analysis at TEMP = 27.000000 and TNOM = 27.000000


No. of Data Rows : 1
Reset re-loads circuit *include "sky130_res_models.spice

Circuit: *include "sky130_res_models.spice

Doing analysis at TEMP = 27.000000 and TNOM = 27.000000


No. of Data Rows : 1
Reset re-loads circuit *include "sky130_res_models.spice

Circuit: *include "sky130_res_models.spice

Doing analysis at TEMP = 27.000000 and TNOM = 27.000000


No. of Data Rows : 1
Reset re-loads circuit *include "sky130_res_models.spice

Circuit: *include "sky130_res_models.spice

Doing analysis at TEMP = 27.000000 and TNOM = 27.000000


No. of Data Rows : 1
Reset re-loads circuit *include "sky130_res_models.spice

Circuit: *include "sky130_res_models.spice

Doing analysis at TEMP = 27.000000 and TNOM = 27.000000


No. of Data Rows : 1
Reset re-loads circuit *include "sky130_res_models.spice

Circuit: *include "sky130_res_models.spice

Doing analysis at TEMP = 27.000000 and TNOM = 27.000000


No. of Data Rows : 1
Reset re-loads circuit *include "sky130_res_models.spice

Circuit: *include "sky130_res_models.spice

Doing analysis at TEMP = 27.000000 and TNOM = 27.000000


No. of Data Rows : 1
Reset re-loads circuit *include "sky130_res_models.spice

Circuit: *include "sky130_res_models.spice

Doing analysis at TEMP = 27.000000 and TNOM = 27.000000


No. of Data Rows : 1
Reset re-loads circuit *include "sky130_res_models.spice

Circuit: *include "sky130_res_models.spice

Doing analysis at TEMP = 27.000000 and TNOM = 27.000000


No. of Data Rows : 1
Reset re-loads circuit *include "sky130_res_models.spice

Circuit: *include Using SPARSE 1.3 as Direct Linear Solver
Using SPARSE 1.3 as Direct Linear Solver
Using SPARSE 1.3 as Direct Linear Solver
Using SPARSE 1.3 as Direct Linear Solver
Using SPARSE 1.3 as Direct Linear Solver
Using SPARSE 1.3 as Direct Linear Solver
Using SPARSE 1.3 as Direct Linear Solver
Using SPARSE 1.3 as Direct Linear Solver
Using SPARSE 1.3 as Direct Linear Solver
Using SPARSE 1.3 as Direct Linear Solver
Using SPARSE 1.3 as Direct Linear Solver
Using SPARSE 1.3 as Direct Linear Solver
Using SPARSE 1.3 as Direct Linear Solver
Using SPARSE 1.3 as Direct Linear Solver
Using SPARSE 1.3 as Direct Linear Solver
Using SPARSE 1.3 as Direct Linear Solver
Using SPARSE 1.3 as Direct Linear Solver
Using SPARSE 1.3 as Direct Linear Solver
Using SPARSE 1.3 as Direct Linear Solver
Using SPARSE 1.3 as Direct Linear Solver
Using SPARSE 1.3 as Direct Linear Solver
Using SPARSE 1.3 as Direct Linear Solver
Using SPARSE 1.3 as Direct Linear Solver
"sky130_res_models.spice

Doing analysis at TEMP = 27.000000 and TNOM = 27.000000


No. of Data Rows : 1
Reset re-loads circuit *include "sky130_res_models.spice

Circuit: *include "sky130_res_models.spice

Doing analysis at TEMP = 27.000000 and TNOM = 27.000000


No. of Data Rows : 1
Reset re-loads circuit *include "sky130_res_models.spice

Circuit: *include "sky130_res_models.spice

Doing analysis at TEMP = 27.000000 and TNOM = 27.000000


No. of Data Rows : 1
Reset re-loads circuit *include "sky130_res_models.spice

Circuit: *include "sky130_res_models.spice

Doing analysis at TEMP = 27.000000 and TNOM = 27.000000


No. of Data Rows : 1
Reset re-loads circuit *include "sky130_res_models.spice

Circuit: *include "sky130_res_models.spice

Doing analysis at TEMP = 27.000000 and TNOM = 27.000000


No. of Data Rows : 1
Reset re-loads circuit *include "sky130_res_models.spice

Circuit: *include "sky130_res_models.spice

Doing analysis at TEMP = 27.000000 and TNOM = 27.000000


No. of Data Rows : 1
Reset re-loads circuit *include "sky130_res_models.spice

Circuit: *include "sky130_res_models.spice

Doing analysis at TEMP = 27.000000 and TNOM = 27.000000


No. of Data Rows : 1
Reset re-loads circuit *include "sky130_res_models.spice

Circuit: *include "sky130_res_models.spice

Doing analysis at TEMP = 27.000000 and TNOM = 27.000000


No. of Data Rows : 1
Reset re-loads circuit *include "sky130_res_models.spice

Circuit: *include "sky130_res_models.spice

Doing analysis at TEMP = 27.000000 and TNOM = 27.000000


No. of Data Rows : 1
Reset re-loads circuit *include "sky130_res_models.spice

Circuit: *include "sky130_res_models.spice

Doing analysis at TEMP = 27.000000 and TNOM = 27.000000


No. of Data Rows : 1
Reset re-loads circuit *include "sky130_res_models.spice

Circuit: *include "sky130_res_models.spice

Doing analysis at TEMP = 27.000000 and TNOM = 27.000000


No. of Data Rows : 1
Reset re-loads circuit *include "sky130_res_models.spice

Circuit: *include "sky130_res_models.spice

Doing analysis at TEMP = 27.000000 and TNOM = 27.000000


No. of Data Rows : 1
Reset re-loads circuit *include "sky130_res_models.spice

Circuit: *include "sky130_res_models.spice

Doing analysis at TEMP = 27.000000 and TNOM = 27.000000


No. of Data Rows : 1
Reset re-loads circuit *include "sky130_res_models.spice

Circuit: *include "sky130_res_models.spice

Doing analysis at TEMP = 27.000000 and TNOM = 27.000000


No. of Data Rows : 1
Reset re-loads circuit *include "sky130_res_models.spice

Circuit: *include "sky130_res_models.spice

Doing analysis at TEMP = 27.000000 and TNOM = 27.000000


No. of Data Rows : 1
Reset re-loads circuit *include "sky130_res_models.spice

Circuit: *include "sky130_res_models.spice

Doing analysis at TEMP = 27.000000 and TNOM = 27.000000


No. of Data Rows : 1
Reset re-loads circuit *include "sky130_res_models.spice

Circuit: *include "sky130_res_models.spice

Doing analysis at TEMP = 27.000000 and TNOM = 27.000000


No. of Data Rows : 1
Reset re-loads circuit *include "sky130_res_models.spice

Circuit: *include "sky130_res_models.spice

Doing analysis at TEMP = 27.000000 and TNOM = 27.000000


No. of Data Rows : 1
Reset re-loads circuit *include "sky130_res_models.spice

Circuit: *include "sky130_res_models.spice

Doing analysis at TEMP = 27.000000 and TNOM = 27.000000


No. of Data Rows : 1
Reset re-loads circuit *include "sky130_res_models.spice

Circuit: *include "sky130_res_models.spice

Doing analysis at TEMP = 27.000000 and TNOM = 27.000000


No. of Data Rows : 1
Reset re-loads circuit *include "sky130_res_models.spice

Circuit: *include "sky130_res_models.spice

Doing analysis at TEMP = 27.000000 and TNOM = 27.000000


No. of Data Rows : 1
Reset re-loads circuit *include "sky130_res_models.spice

Circuit: *include "sky130_res_models.spice

Doing analysis at TEMP = 27.000000 and TNOM = 27.000000


No. of Data Rows : 1
Reset re-loads circuit *include "sky130_res_models.spice

Circuit: *include "sky130_res_models.spice

Doing analysis at TEMP = 27.000000 and TNOM = 27.000000


No. of Data Rows : 1
Reset re-Using SPARSE 1.3 as Direct Linear Solver
Using SPARSE 1.3 as Direct Linear Solver
Using SPARSE 1.3 as Direct Linear Solver
Using SPARSE 1.3 as Direct Linear Solver
Using SPARSE 1.3 as Direct Linear Solver
Using SPARSE 1.3 as Direct Linear Solver
Using SPARSE 1.3 as Direct Linear Solver
Using SPARSE 1.3 as Direct Linear Solver
Using SPARSE 1.3 as Direct Linear Solver
Using SPARSE 1.3 as Direct Linear Solver
Using SPARSE 1.3 as Direct Linear Solver
Using SPARSE 1.3 as Direct Linear Solver
Using SPARSE 1.3 as Direct Linear Solver
Using SPARSE 1.3 as Direct Linear Solver
Using SPARSE 1.3 as Direct Linear Solver
Using SPARSE 1.3 as Direct Linear Solver
Using SPARSE 1.3 as Direct Linear Solver
Using SPARSE 1.3 as Direct Linear Solver
Using SPARSE 1.3 as Direct Linear Solver
Using SPARSE 1.3 as Direct Linear Solver
Using SPARSE 1.3 as Direct Linear Solver
Using SPARSE 1.3 as Direct Linear Solver
loads circuit *include "sky130_res_models.spice

Circuit: *include "sky130_res_models.spice

Doing analysis at TEMP = 27.000000 and TNOM = 27.000000


No. of Data Rows : 1
Reset re-loads circuit *include "sky130_res_models.spice

Circuit: *include "sky130_res_models.spice

Doing analysis at TEMP = 27.000000 and TNOM = 27.000000


No. of Data Rows : 1
Reset re-loads circuit *include "sky130_res_models.spice

Circuit: *include "sky130_res_models.spice

Doing analysis at TEMP = 27.000000 and TNOM = 27.000000


No. of Data Rows : 1
Reset re-loads circuit *include "sky130_res_models.spice

Circuit: *include "sky130_res_models.spice

Doing analysis at TEMP = 27.000000 and TNOM = 27.000000


No. of Data Rows : 1
Reset re-loads circuit *include "sky130_res_models.spice

Circuit: *include "sky130_res_models.spice

Doing analysis at TEMP = 27.000000 and TNOM = 27.000000


No. of Data Rows : 1
Reset re-loads circuit *include "sky130_res_models.spice

Circuit: *include "sky130_res_models.spice

Doing analysis at TEMP = 27.000000 and TNOM = 27.000000


No. of Data Rows : 1
Reset re-loads circuit *include "sky130_res_models.spice

Circuit: *include "sky130_res_models.spice

Doing analysis at TEMP = 27.000000 and TNOM = 27.000000


No. of Data Rows : 1
Reset re-loads circuit *include "sky130_res_models.spice

Circuit: *include "sky130_res_models.spice

Doing analysis at TEMP = 27.000000 and TNOM = 27.000000


No. of Data Rows : 1
Reset re-loads circuit *include "sky130_res_models.spice

Circuit: *include "sky130_res_models.spice

Doing analysis at TEMP = 27.000000 and TNOM = 27.000000


No. of Data Rows : 1
Reset re-loads circuit *include "sky130_res_models.spice

Circuit: *include "sky130_res_models.spice

Doing analysis at TEMP = 27.000000 and TNOM = 27.000000


No. of Data Rows : 1
Reset re-loads circuit *include "sky130_res_models.spice

Circuit: *include "sky130_res_models.spice

Doing analysis at TEMP = 27.000000 and TNOM = 27.000000


No. of Data Rows : 1
Reset re-loads circuit *include "sky130_res_models.spice

Circuit: *include "sky130_res_models.spice

Doing analysis at TEMP = 27.000000 and TNOM = 27.000000


No. of Data Rows : 1
Reset re-loads circuit *include "sky130_res_models.spice

Circuit: *include "sky130_res_models.spice

Doing analysis at TEMP = 27.000000 and TNOM = 27.000000


No. of Data Rows : 1
Reset re-loads circuit *include "sky130_res_models.spice

Circuit: *include "sky130_res_models.spice

Doing analysis at TEMP = 27.000000 and TNOM = 27.000000


No. of Data Rows : 1
Reset re-loads circuit *include "sky130_res_models.spice

Circuit: *include "sky130_res_models.spice

Doing analysis at TEMP = 27.000000 and TNOM = 27.000000


No. of Data Rows : 1
Reset re-loads circuit *include "sky130_res_models.spice

Circuit: *include "sky130_res_models.spice

Doing analysis at TEMP = 27.000000 and TNOM = 27.000000


No. of Data Rows : 1
Reset re-loads circuit *include "sky130_res_models.spice

Circuit: *include "sky130_res_models.spice

Doing analysis at TEMP = 27.000000 and TNOM = 27.000000


No. of Data Rows : 1
Reset re-loads circuit *include "sky130_res_models.spice

Circuit: *include "sky130_res_models.spice

Doing analysis at TEMP = 27.000000 and TNOM = 27.000000


No. of Data Rows : 1
Reset re-loads circuit *include "sky130_res_models.spice

Circuit: *include "sky130_res_models.spice

Doing analysis at TEMP = 27.000000 and TNOM = 27.000000


No. of Data Rows : 1
Reset re-loads circuit *include "sky130_res_models.spice

Circuit: *include "sky130_res_models.spice

Doing analysis at TEMP = 27.000000 and TNOM = 27.000000


No. of Data Rows : 1
Reset re-loads circuit *include "sky130_res_models.spice

Circuit: *include "sky130_res_models.spice

Doing analysis at TEMP = 27.000000 and TNOM = 27.000000


No. of Data Rows : 1
Reset re-loads circuit *include "sky130_res_models.spice

Circuit: *include "sky130_res_models.spice

Doing analysis at TEMP = 27.000000 and TNOM = 27.000000


No. of Data Rows : 1
Reset re-loads circuit *include "sky130_res_models.spice

Circuit: *include "sky130_res_models.spice

Doing analysis at TEMUsing SPARSE 1.3 as Direct Linear Solver
Using SPARSE 1.3 as Direct Linear Solver
Using SPARSE 1.3 as Direct Linear Solver
Using SPARSE 1.3 as Direct Linear Solver
Using SPARSE 1.3 as Direct Linear Solver
Using SPARSE 1.3 as Direct Linear Solver
Using SPARSE 1.3 as Direct Linear Solver
Using SPARSE 1.3 as Direct Linear Solver
Using SPARSE 1.3 as Direct Linear Solver
Using SPARSE 1.3 as Direct Linear Solver
Using SPARSE 1.3 as Direct Linear Solver
Using SPARSE 1.3 as Direct Linear Solver
Using SPARSE 1.3 as Direct Linear Solver
Using SPARSE 1.3 as Direct Linear Solver
Using SPARSE 1.3 as Direct Linear Solver
Using SPARSE 1.3 as Direct Linear Solver
Using SPARSE 1.3 as Direct Linear Solver
Using SPARSE 1.3 as Direct Linear Solver
Using SPARSE 1.3 as Direct Linear Solver
Using SPARSE 1.3 as Direct Linear Solver
Using SPARSE 1.3 as Direct Linear Solver
Using SPARSE 1.3 as Direct Linear Solver
Using SPARSE 1.3 as Direct Linear Solver
P = 27.000000 and TNOM = 27.000000


No. of Data Rows : 1
Reset re-loads circuit *include "sky130_res_models.spice

Circuit: *include "sky130_res_models.spice

Doing analysis at TEMP = 27.000000 and TNOM = 27.000000


No. of Data Rows : 1
Reset re-loads circuit *include "sky130_res_models.spice

Circuit: *include "sky130_res_models.spice

Doing analysis at TEMP = 27.000000 and TNOM = 27.000000


No. of Data Rows : 1
Reset re-loads circuit *include "sky130_res_models.spice

Circuit: *include "sky130_res_models.spice

Doing analysis at TEMP = 27.000000 and TNOM = 27.000000


No. of Data Rows : 1
Reset re-loads circuit *include "sky130_res_models.spice

Circuit: *include "sky130_res_models.spice

Doing analysis at TEMP = 27.000000 and TNOM = 27.000000


No. of Data Rows : 1
Reset re-loads circuit *include "sky130_res_models.spice

Circuit: *include "sky130_res_models.spice

Doing analysis at TEMP = 27.000000 and TNOM = 27.000000


No. of Data Rows : 1
Reset re-loads circuit *include "sky130_res_models.spice

Circuit: *include "sky130_res_models.spice

Doing analysis at TEMP = 27.000000 and TNOM = 27.000000


No. of Data Rows : 1
Reset re-loads circuit *include "sky130_res_models.spice

Circuit: *include "sky130_res_models.spice

Doing analysis at TEMP = 27.000000 and TNOM = 27.000000


No. of Data Rows : 1
Reset re-loads circuit *include "sky130_res_models.spice

Circuit: *include "sky130_res_models.spice

Doing analysis at TEMP = 27.000000 and TNOM = 27.000000


No. of Data Rows : 1
Reset re-loads circuit *include "sky130_res_models.spice

Circuit: *include "sky130_res_models.spice

Doing analysis at TEMP = 27.000000 and TNOM = 27.000000


No. of Data Rows : 1
Reset re-loads circuit *include "sky130_res_models.spice

Circuit: *include "sky130_res_models.spice

Doing analysis at TEMP = 27.000000 and TNOM = 27.000000


No. of Data Rows : 1
Reset re-loads circuit *include "sky130_res_models.spice

Circuit: *include "sky130_res_models.spice

Doing analysis at TEMP = 27.000000 and TNOM = 27.000000


No. of Data Rows : 1
Reset re-loads circuit *include "sky130_res_models.spice

Circuit: *include "sky130_res_models.spice

Doing analysis at TEMP = 27.000000 and TNOM = 27.000000


No. of Data Rows : 1
Reset re-loads circuit *include "sky130_res_models.spice

Circuit: *include "sky130_res_models.spice

Doing analysis at TEMP = 27.000000 and TNOM = 27.000000


No. of Data Rows : 1
Reset re-loads circuit *include "sky130_res_models.spice

Circuit: *include "sky130_res_models.spice

Doing analysis at TEMP = 27.000000 and TNOM = 27.000000


No. of Data Rows : 1
Reset re-loads circuit *include "sky130_res_models.spice

Circuit: *include "sky130_res_models.spice

Doing analysis at TEMP = 27.000000 and TNOM = 27.000000


No. of Data Rows : 1
Reset re-loads circuit *include "sky130_res_models.spice

Circuit: *include "sky130_res_models.spice

Doing analysis at TEMP = 27.000000 and TNOM = 27.000000


No. of Data Rows : 1
Reset re-loads circuit *include "sky130_res_models.spice

Circuit: *include "sky130_res_models.spice

Doing analysis at TEMP = 27.000000 and TNOM = 27.000000


No. of Data Rows : 1
Reset re-loads circuit *include "sky130_res_models.spice

Circuit: *include "sky130_res_models.spice

Doing analysis at TEMP = 27.000000 and TNOM = 27.000000


No. of Data Rows : 1
Reset re-loads circuit *include "sky130_res_models.spice

Circuit: *include "sky130_res_models.spice

Doing analysis at TEMP = 27.000000 and TNOM = 27.000000


No. of Data Rows : 1
Reset re-loads circuit *include "sky130_res_models.spice

Circuit: *include "sky130_res_models.spice

Doing analysis at TEMP = 27.000000 and TNOM = 27.000000


No. of Data Rows : 1
Reset re-loads circuit *include "sky130_res_models.spice

Circuit: *include "sky130_res_models.spice

Doing analysis at TEMP = 27.000000 and TNOM = 27.000000


No. of Data Rows : 1
Reset re-loads circuit *include "sky130_res_models.spice

Circuit: *include "sky130_res_models.spice

Doing analysis at TEMP = 27.000000 and TNOM = 27.000000


No. of Data Rows : 1
Reset re-loads circuit *include "sky130_res_models.spiceUsing SPARSE 1.3 as Direct Linear Solver
Using SPARSE 1.3 as Direct Linear Solver
Using SPARSE 1.3 as Direct Linear Solver
Using SPARSE 1.3 as Direct Linear Solver
Using SPARSE 1.3 as Direct Linear Solver
Using SPARSE 1.3 as Direct Linear Solver
Using SPARSE 1.3 as Direct Linear Solver
Using SPARSE 1.3 as Direct Linear Solver
Using SPARSE 1.3 as Direct Linear Solver
Using SPARSE 1.3 as Direct Linear Solver
Using SPARSE 1.3 as Direct Linear Solver
Using SPARSE 1.3 as Direct Linear Solver
Using SPARSE 1.3 as Direct Linear Solver
Using SPARSE 1.3 as Direct Linear Solver
Using SPARSE 1.3 as Direct Linear Solver
Using SPARSE 1.3 as Direct Linear Solver
Using SPARSE 1.3 as Direct Linear Solver
Using SPARSE 1.3 as Direct Linear Solver
Using SPARSE 1.3 as Direct Linear Solver
Using SPARSE 1.3 as Direct Linear Solver
Using SPARSE 1.3 as Direct Linear Solver
Using SPARSE 1.3 as Direct Linear Solver
Using SPARSE 1.3 as Direct Linear Solver


Circuit: *include "sky130_res_models.spice

Doing analysis at TEMP = 27.000000 and TNOM = 27.000000


No. of Data Rows : 1
Reset re-loads circuit *include "sky130_res_models.spice

Circuit: *include "sky130_res_models.spice

Doing analysis at TEMP = 27.000000 and TNOM = 27.000000


No. of Data Rows : 1
Reset re-loads circuit *include "sky130_res_models.spice

Circuit: *include "sky130_res_models.spice

Doing analysis at TEMP = 27.000000 and TNOM = 27.000000


No. of Data Rows : 1
Reset re-loads circuit *include "sky130_res_models.spice

Circuit: *include "sky130_res_models.spice

Doing analysis at TEMP = 27.000000 and TNOM = 27.000000


No. of Data Rows : 1
Reset re-loads circuit *include "sky130_res_models.spice

Circuit: *include "sky130_res_models.spice

Doing analysis at TEMP = 27.000000 and TNOM = 27.000000


No. of Data Rows : 1
Reset re-loads circuit *include "sky130_res_models.spice

Circuit: *include "sky130_res_models.spice

Doing analysis at TEMP = 27.000000 and TNOM = 27.000000


No. of Data Rows : 1
Reset re-loads circuit *include "sky130_res_models.spice

Circuit: *include "sky130_res_models.spice

Doing analysis at TEMP = 27.000000 and TNOM = 27.000000


No. of Data Rows : 1
Reset re-loads circuit *include "sky130_res_models.spice

Circuit: *include "sky130_res_models.spice

Doing analysis at TEMP = 27.000000 and TNOM = 27.000000


No. of Data Rows : 1
Reset re-loads circuit *include "sky130_res_models.spice

Circuit: *include "sky130_res_models.spice

Doing analysis at TEMP = 27.000000 and TNOM = 27.000000


No. of Data Rows : 1
Reset re-loads circuit *include "sky130_res_models.spice

Circuit: *include "sky130_res_models.spice

Doing analysis at TEMP = 27.000000 and TNOM = 27.000000


No. of Data Rows : 1
Reset re-loads circuit *include "sky130_res_models.spice

Circuit: *include "sky130_res_models.spice

Doing analysis at TEMP = 27.000000 and TNOM = 27.000000


No. of Data Rows : 1
Reset re-loads circuit *include "sky130_res_models.spice

Circuit: *include "sky130_res_models.spice

Doing analysis at TEMP = 27.000000 and TNOM = 27.000000


No. of Data Rows : 1
Reset re-loads circuit *include "sky130_res_models.spice

Circuit: *include "sky130_res_models.spice

Doing analysis at TEMP = 27.000000 and TNOM = 27.000000


No. of Data Rows : 1
Reset re-loads circuit *include "sky130_res_models.spice

Circuit: *include "sky130_res_models.spice

Doing analysis at TEMP = 27.000000 and TNOM = 27.000000


No. of Data Rows : 1
Reset re-loads circuit *include "sky130_res_models.spice

Circuit: *include "sky130_res_models.spice

Doing analysis at TEMP = 27.000000 and TNOM = 27.000000


No. of Data Rows : 1
Reset re-loads circuit *include "sky130_res_models.spice

Circuit: *include "sky130_res_models.spice

Doing analysis at TEMP = 27.000000 and TNOM = 27.000000


No. of Data Rows : 1
Reset re-loads circuit *include "sky130_res_models.spice

Circuit: *include "sky130_res_models.spice

Doing analysis at TEMP = 27.000000 and TNOM = 27.000000


No. of Data Rows : 1
Reset re-loads circuit *include "sky130_res_models.spice

Circuit: *include "sky130_res_models.spice

Doing analysis at TEMP = 27.000000 and TNOM = 27.000000


No. of Data Rows : 1
Reset re-loads circuit *include "sky130_res_models.spice

Circuit: *include "sky130_res_models.spice

Doing analysis at TEMP = 27.000000 and TNOM = 27.000000


No. of Data Rows : 1
Reset re-loads circuit *include "sky130_res_models.spice

Circuit: *include "sky130_res_models.spice

Doing analysis at TEMP = 27.000000 and TNOM = 27.000000


No. of Data Rows : 1
Reset re-loads circuit *include "sky130_res_models.spice

Circuit: *include "sky130_res_models.spice

Doing analysis at TEMP = 27.000000 and TNOM = 27.000000


No. of Data Rows : 1
Reset re-loads circuit *include "sky130_res_models.spice

Circuit: *include "sky130_res_models.spice

Doing analysis at TEMP = 27.000000 and TNOM = 27.000000


No. of Data Rows : 1
Reset re-loads circuit *include "sky130_res_models.spice

Circuit: *include "sky130_res_models.spice

Doing analysis at TEMP = 27.000000 and TNOM = 27.000000


No. of DatUsing SPARSE 1.3 as Direct Linear Solver
Using SPARSE 1.3 as Direct Linear Solver
Using SPARSE 1.3 as Direct Linear Solver
Using SPARSE 1.3 as Direct Linear Solver
Using SPARSE 1.3 as Direct Linear Solver
Using SPARSE 1.3 as Direct Linear Solver
Using SPARSE 1.3 as Direct Linear Solver
Using SPARSE 1.3 as Direct Linear Solver
Using SPARSE 1.3 as Direct Linear Solver
Using SPARSE 1.3 as Direct Linear Solver
Using SPARSE 1.3 as Direct Linear Solver
Using SPARSE 1.3 as Direct Linear Solver
Using SPARSE 1.3 as Direct Linear Solver
Using SPARSE 1.3 as Direct Linear Solver
Using SPARSE 1.3 as Direct Linear Solver
Using SPARSE 1.3 as Direct Linear Solver
Using SPARSE 1.3 as Direct Linear Solver
Using SPARSE 1.3 as Direct Linear Solver
Using SPARSE 1.3 as Direct Linear Solver
Using SPARSE 1.3 as Direct Linear Solver
Using SPARSE 1.3 as Direct Linear Solver
Using SPARSE 1.3 as Direct Linear Solver
a Rows : 1
Reset re-loads circuit *include "sky130_res_models.spice

Circuit: *include "sky130_res_models.spice

Doing analysis at TEMP = 27.000000 and TNOM = 27.000000


No. of Data Rows : 1
Reset re-loads circuit *include "sky130_res_models.spice

Circuit: *include "sky130_res_models.spice

Doing analysis at TEMP = 27.000000 and TNOM = 27.000000


No. of Data Rows : 1
Reset re-loads circuit *include "sky130_res_models.spice

Circuit: *include "sky130_res_models.spice

Doing analysis at TEMP = 27.000000 and TNOM = 27.000000


No. of Data Rows : 1
Reset re-loads circuit *include "sky130_res_models.spice

Circuit: *include "sky130_res_models.spice

Doing analysis at TEMP = 27.000000 and TNOM = 27.000000


No. of Data Rows : 1
Reset re-loads circuit *include "sky130_res_models.spice

Circuit: *include "sky130_res_models.spice

Doing analysis at TEMP = 27.000000 and TNOM = 27.000000


No. of Data Rows : 1
Reset re-loads circuit *include "sky130_res_models.spice

Circuit: *include "sky130_res_models.spice

Doing analysis at TEMP = 27.000000 and TNOM = 27.000000


No. of Data Rows : 1
Reset re-loads circuit *include "sky130_res_models.spice

Circuit: *include "sky130_res_models.spice

Doing analysis at TEMP = 27.000000 and TNOM = 27.000000


No. of Data Rows : 1
Reset re-loads circuit *include "sky130_res_models.spice

Circuit: *include "sky130_res_models.spice

Doing analysis at TEMP = 27.000000 and TNOM = 27.000000


No. of Data Rows : 1
Reset re-loads circuit *include "sky130_res_models.spice

Circuit: *include "sky130_res_models.spice

Doing analysis at TEMP = 27.000000 and TNOM = 27.000000


No. of Data Rows : 1
Reset re-loads circuit *include "sky130_res_models.spice

Circuit: *include "sky130_res_models.spice

Doing analysis at TEMP = 27.000000 and TNOM = 27.000000


No. of Data Rows : 1
Reset re-loads circuit *include "sky130_res_models.spice

Circuit: *include "sky130_res_models.spice

Doing analysis at TEMP = 27.000000 and TNOM = 27.000000


No. of Data Rows : 1
Reset re-loads circuit *include "sky130_res_models.spice

Circuit: *include "sky130_res_models.spice

Doing analysis at TEMP = 27.000000 and TNOM = 27.000000


No. of Data Rows : 1
Reset re-loads circuit *include "sky130_res_models.spice

Circuit: *include "sky130_res_models.spice

Doing analysis at TEMP = 27.000000 and TNOM = 27.000000


No. of Data Rows : 1
Reset re-loads circuit *include "sky130_res_models.spice

Circuit: *include "sky130_res_models.spice

Doing analysis at TEMP = 27.000000 and TNOM = 27.000000


No. of Data Rows : 1
Reset re-loads circuit *include "sky130_res_models.spice

Circuit: *include "sky130_res_models.spice

Doing analysis at TEMP = 27.000000 and TNOM = 27.000000


No. of Data Rows : 1
Reset re-loads circuit *include "sky130_res_models.spice

Circuit: *include "sky130_res_models.spice

Doing analysis at TEMP = 27.000000 and TNOM = 27.000000


No. of Data Rows : 1
Reset re-loads circuit *include "sky130_res_models.spice

Circuit: *include "sky130_res_models.spice

Doing analysis at TEMP = 27.000000 and TNOM = 27.000000


No. of Data Rows : 1
Reset re-loads circuit *include "sky130_res_models.spice

Circuit: *include "sky130_res_models.spice

Doing analysis at TEMP = 27.000000 and TNOM = 27.000000


No. of Data Rows : 1
Reset re-loads circuit *include "sky130_res_models.spice

Circuit: *include "sky130_res_models.spice

Doing analysis at TEMP = 27.000000 and TNOM = 27.000000


No. of Data Rows : 1
Reset re-loads circuit *include "sky130_res_models.spice

Circuit: *include "sky130_res_models.spice

Doing analysis at TEMP = 27.000000 and TNOM = 27.000000


No. of Data Rows : 1
Reset re-loads circuit *include "sky130_res_models.spice

Circuit: *include "sky130_res_models.spice

Doing analysis at TEMP = 27.000000 and TNOM = 27.000000


No. of Data Rows : 1
Reset re-loads circuit *include "sky130_res_models.spice

Circuit: *include "sky130_res_models.spice

Doing analysis at TEMP = 27.000000 and TNOM = 27.000000


No. of Data Rows : 1
Reset re-loads circuit *include "sky130_res_models.spice

Circuit: *include "sky130_res_models.spice

DUsing SPARSE 1.3 as Direct Linear Solver
Using SPARSE 1.3 as Direct Linear Solver
Using SPARSE 1.3 as Direct Linear Solver
Using SPARSE 1.3 as Direct Linear Solver
Using SPARSE 1.3 as Direct Linear Solver
Using SPARSE 1.3 as Direct Linear Solver
Using SPARSE 1.3 as Direct Linear Solver
Using SPARSE 1.3 as Direct Linear Solver
Using SPARSE 1.3 as Direct Linear Solver
Using SPARSE 1.3 as Direct Linear Solver
Using SPARSE 1.3 as Direct Linear Solver
Using SPARSE 1.3 as Direct Linear Solver
Using SPARSE 1.3 as Direct Linear Solver
Using SPARSE 1.3 as Direct Linear Solver
Using SPARSE 1.3 as Direct Linear Solver
Using SPARSE 1.3 as Direct Linear Solver
Using SPARSE 1.3 as Direct Linear Solver
Using SPARSE 1.3 as Direct Linear Solver
Using SPARSE 1.3 as Direct Linear Solver
Using SPARSE 1.3 as Direct Linear Solver
Using SPARSE 1.3 as Direct Linear Solver
Using SPARSE 1.3 as Direct Linear Solver
Using SPARSE 1.3 as Direct Linear Solver
oing analysis at TEMP = 27.000000 and TNOM = 27.000000


No. of Data Rows : 1
Reset re-loads circuit *include "sky130_res_models.spice

Circuit: *include "sky130_res_models.spice

Doing analysis at TEMP = 27.000000 and TNOM = 27.000000


No. of Data Rows : 1
Reset re-loads circuit *include "sky130_res_models.spice

Circuit: *include "sky130_res_models.spice

Doing analysis at TEMP = 27.000000 and TNOM = 27.000000


No. of Data Rows : 1
Reset re-loads circuit *include "sky130_res_models.spice

Circuit: *include "sky130_res_models.spice

Doing analysis at TEMP = 27.000000 and TNOM = 27.000000


No. of Data Rows : 1
Reset re-loads circuit *include "sky130_res_models.spice

Circuit: *include "sky130_res_models.spice

Doing analysis at TEMP = 27.000000 and TNOM = 27.000000


No. of Data Rows : 1
Reset re-loads circuit *include "sky130_res_models.spice

Circuit: *include "sky130_res_models.spice

Doing analysis at TEMP = 27.000000 and TNOM = 27.000000


No. of Data Rows : 1
Reset re-loads circuit *include "sky130_res_models.spice

Circuit: *include "sky130_res_models.spice

Doing analysis at TEMP = 27.000000 and TNOM = 27.000000


No. of Data Rows : 1
Reset re-loads circuit *include "sky130_res_models.spice

Circuit: *include "sky130_res_models.spice

Doing analysis at TEMP = 27.000000 and TNOM = 27.000000


No. of Data Rows : 1
Reset re-loads circuit *include "sky130_res_models.spice

Circuit: *include "sky130_res_models.spice

Doing analysis at TEMP = 27.000000 and TNOM = 27.000000


No. of Data Rows : 1
Reset re-loads circuit *include "sky130_res_models.spice

Circuit: *include "sky130_res_models.spice

Doing analysis at TEMP = 27.000000 and TNOM = 27.000000


No. of Data Rows : 1
Reset re-loads circuit *include "sky130_res_models.spice

Circuit: *include "sky130_res_models.spice

Doing analysis at TEMP = 27.000000 and TNOM = 27.000000


No. of Data Rows : 1
Reset re-loads circuit *include "sky130_res_models.spice

Circuit: *include "sky130_res_models.spice

Doing analysis at TEMP = 27.000000 and TNOM = 27.000000


No. of Data Rows : 1
Reset re-loads circuit *include "sky130_res_models.spice

Circuit: *include "sky130_res_models.spice

Doing analysis at TEMP = 27.000000 and TNOM = 27.000000


No. of Data Rows : 1
Reset re-loads circuit *include "sky130_res_models.spice

Circuit: *include "sky130_res_models.spice

Doing analysis at TEMP = 27.000000 and TNOM = 27.000000


No. of Data Rows : 1
Reset re-loads circuit *include "sky130_res_models.spice

Circuit: *include "sky130_res_models.spice

Doing analysis at TEMP = 27.000000 and TNOM = 27.000000


No. of Data Rows : 1
Reset re-loads circuit *include "sky130_res_models.spice

Circuit: *include "sky130_res_models.spice

Doing analysis at TEMP = 27.000000 and TNOM = 27.000000


No. of Data Rows : 1
Reset re-loads circuit *include "sky130_res_models.spice

Circuit: *include "sky130_res_models.spice

Doing analysis at TEMP = 27.000000 and TNOM = 27.000000


No. of Data Rows : 1
Reset re-loads circuit *include "sky130_res_models.spice

Circuit: *include "sky130_res_models.spice

Doing analysis at TEMP = 27.000000 and TNOM = 27.000000


No. of Data Rows : 1
Reset re-loads circuit *include "sky130_res_models.spice

Circuit: *include "sky130_res_models.spice

Doing analysis at TEMP = 27.000000 and TNOM = 27.000000


No. of Data Rows : 1
Reset re-loads circuit *include "sky130_res_models.spice

Circuit: *include "sky130_res_models.spice

Doing analysis at TEMP = 27.000000 and TNOM = 27.000000


No. of Data Rows : 1
Reset re-loads circuit *include "sky130_res_models.spice

Circuit: *include "sky130_res_models.spice

Doing analysis at TEMP = 27.000000 and TNOM = 27.000000


No. of Data Rows : 1
Reset re-loads circuit *include "sky130_res_models.spice

Circuit: *include "sky130_res_models.spice

Doing analysis at TEMP = 27.000000 and TNOM = 27.000000


No. of Data Rows : 1
Reset re-loads circuit *include "sky130_res_models.spice

Circuit: *include "sky130_res_models.spice

Doing analysis at TEMP = 27.000000 and TNOM = 27.000000


No. of Data Rows : 1
Reset re-loads circuit *include "skyUsing SPARSE 1.3 as Direct Linear Solver
Using SPARSE 1.3 as Direct Linear Solver
Using SPARSE 1.3 as Direct Linear Solver
Using SPARSE 1.3 as Direct Linear Solver
Using SPARSE 1.3 as Direct Linear Solver
Using SPARSE 1.3 as Direct Linear Solver
Using SPARSE 1.3 as Direct Linear Solver
Using SPARSE 1.3 as Direct Linear Solver
Using SPARSE 1.3 as Direct Linear Solver
Using SPARSE 1.3 as Direct Linear Solver
Using SPARSE 1.3 as Direct Linear Solver
Using SPARSE 1.3 as Direct Linear Solver
130_res_models.spice

Circuit: *include "sky130_res_models.spice

Doing analysis at TEMP = 27.000000 and TNOM = 27.000000


No. of Data Rows : 1
Reset re-loads circuit *include "sky130_res_models.spice

Circuit: *include "sky130_res_models.spice

Doing analysis at TEMP = 27.000000 and TNOM = 27.000000


No. of Data Rows : 1
Reset re-loads circuit *include "sky130_res_models.spice

Circuit: *include "sky130_res_models.spice

Doing analysis at TEMP = 27.000000 and TNOM = 27.000000


No. of Data Rows : 1
Reset re-loads circuit *include "sky130_res_models.spice

Circuit: *include "sky130_res_models.spice

Doing analysis at TEMP = 27.000000 and TNOM = 27.000000


No. of Data Rows : 1
Reset re-loads circuit *include "sky130_res_models.spice

Circuit: *include "sky130_res_models.spice

Doing analysis at TEMP = 27.000000 and TNOM = 27.000000


No. of Data Rows : 1
Reset re-loads circuit *include "sky130_res_models.spice

Circuit: *include "sky130_res_models.spice

Doing analysis at TEMP = 27.000000 and TNOM = 27.000000


No. of Data Rows : 1
Reset re-loads circuit *include "sky130_res_models.spice

Circuit: *include "sky130_res_models.spice

Doing analysis at TEMP = 27.000000 and TNOM = 27.000000


No. of Data Rows : 1
Reset re-loads circuit *include "sky130_res_models.spice

Circuit: *include "sky130_res_models.spice

Doing analysis at TEMP = 27.000000 and TNOM = 27.000000


No. of Data Rows : 1
Reset re-loads circuit *include "sky130_res_models.spice

Circuit: *include "sky130_res_models.spice

Doing analysis at TEMP = 27.000000 and TNOM = 27.000000


No. of Data Rows : 1
Reset re-loads circuit *include "sky130_res_models.spice

Circuit: *include "sky130_res_models.spice

Doing analysis at TEMP = 27.000000 and TNOM = 27.000000


No. of Data Rows : 1
Reset re-loads circuit *include "sky130_res_models.spice

Circuit: *include "sky130_res_models.spice

Doing analysis at TEMP = 27.000000 and TNOM = 27.000000


No. of Data Rows : 1
Reset re-loads circuit *include "sky130_res_models.spice

Circuit: *include "sky130_res_models.spice

Doing analysis at TEMP = 27.000000 and TNOM = 27.000000

 Reference value :  0.00000e+00Using SPARSE 1.3 as Direct Linear Solver
Using SPARSE 1.3 as Direct Linear Solver
Using SPARSE 1.3 as Direct Linear Solver
Using SPARSE 1.3 as Direct Linear Solver
Using SPARSE 1.3 as Direct Linear Solver
Using SPARSE 1.3 as Direct Linear Solver
Using SPARSE 1.3 as Direct Linear Solver
Using SPARSE 1.3 as Direct Linear Solver
Using SPARSE 1.3 as Direct Linear Solver
Using SPARSE 1.3 as Direct Linear Solver
Using SPARSE 1.3 as Direct Linear Solver
Using SPARSE 1.3 as Direct Linear Solver
Using SPARSE 1.3 as Direct Linear Solver
Using SPARSE 1.3 as Direct Linear Solver
Using SPARSE 1.3 as Direct Linear Solver
Using SPARSE 1.3 as Direct Linear Solver
Using SPARSE 1.3 as Direct Linear Solver
Using SPARSE 1.3 as Direct Linear Solver
Using SPARSE 1.3 as Direct Linear Solver
Using SPARSE 1.3 as Direct Linear Solver
Using SPARSE 1.3 as Direct Linear Solver
Using SPARSE 1.3 as Direct Linear Solver

No. of Data Rows : 1
Reset re-loads circuit *include "sky130_res_models.spice

Circuit: *include "sky130_res_models.spice

Doing analysis at TEMP = 27.000000 and TNOM = 27.000000


No. of Data Rows : 1
Reset re-loads circuit *include "sky130_res_models.spice

Circuit: *include "sky130_res_models.spice

Doing analysis at TEMP = 27.000000 and TNOM = 27.000000


No. of Data Rows : 1
Reset re-loads circuit *include "sky130_res_models.spice

Circuit: *include "sky130_res_models.spice

Doing analysis at TEMP = 27.000000 and TNOM = 27.000000


No. of Data Rows : 1
Reset re-loads circuit *include "sky130_res_models.spice

Circuit: *include "sky130_res_models.spice

Doing analysis at TEMP = 27.000000 and TNOM = 27.000000


No. of Data Rows : 1
Reset re-loads circuit *include "sky130_res_models.spice

Circuit: *include "sky130_res_models.spice

Doing analysis at TEMP = 27.000000 and TNOM = 27.000000


No. of Data Rows : 1
Reset re-loads circuit *include "sky130_res_models.spice

Circuit: *include "sky130_res_models.spice

Doing analysis at TEMP = 27.000000 and TNOM = 27.000000


No. of Data Rows : 1
Reset re-loads circuit *include "sky130_res_models.spice

Circuit: *include "sky130_res_models.spice

Doing analysis at TEMP = 27.000000 and TNOM = 27.000000


No. of Data Rows : 1
Reset re-loads circuit *include "sky130_res_models.spice

Circuit: *include "sky130_res_models.spice

Doing analysis at TEMP = 27.000000 and TNOM = 27.000000


No. of Data Rows : 1
Reset re-loads circuit *include "sky130_res_models.spice

Circuit: *include "sky130_res_models.spice

Doing analysis at TEMP = 27.000000 and TNOM = 27.000000


No. of Data Rows : 1
Reset re-loads circuit *include "sky130_res_models.spice

Circuit: *include "sky130_res_models.spice

Doing analysis at TEMP = 27.000000 and TNOM = 27.000000


No. of Data Rows : 1
Reset re-loads circuit *include "sky130_res_models.spice

Circuit: *include "sky130_res_models.spice

Doing analysis at TEMP = 27.000000 and TNOM = 27.000000


No. of Data Rows : 1
Reset re-loads circuit *include "sky130_res_models.spice

Circuit: *include "sky130_res_models.spice

Doing analysis at TEMP = 27.000000 and TNOM = 27.000000


No. of Data Rows : 1
Reset re-loads circuit *include "sky130_res_models.spice

Circuit: *include "sky130_res_models.spice

Doing analysis at TEMP = 27.000000 and TNOM = 27.000000


No. of Data Rows : 1
Reset re-loads circuit *include "sky130_res_models.spice

Circuit: *include "sky130_res_models.spice

Doing analysis at TEMP = 27.000000 and TNOM = 27.000000


No. of Data Rows : 1
Reset re-loads circuit *include "sky130_res_models.spice

Circuit: *include "sky130_res_models.spice

Doing analysis at TEMP = 27.000000 and TNOM = 27.000000


No. of Data Rows : 1
Reset re-loads circuit *include "sky130_res_models.spice

Circuit: *include "sky130_res_models.spice

Doing analysis at TEMP = 27.000000 and TNOM = 27.000000


No. of Data Rows : 1
Reset re-loads circuit *include "sky130_res_models.spice

Circuit: *include "sky130_res_models.spice

Doing analysis at TEMP = 27.000000 and TNOM = 27.000000


No. of Data Rows : 1
Reset re-loads circuit *include "sky130_res_models.spice

Circuit: *include "sky130_res_models.spice

Doing analysis at TEMP = 27.000000 and TNOM = 27.000000


No. of Data Rows : 1
Reset re-loads circuit *include "sky130_res_models.spice

Circuit: *include "sky130_res_models.spice

Doing analysis at TEMP = 27.000000 and TNOM = 27.000000


No. of Data Rows : 1
Reset re-loads circuit *include "sky130_res_models.spice

Circuit: *include "sky130_res_models.spice

Doing analysis at TEMP = 27.000000 and TNOM = 27.000000


No. of Data Rows : 1
Reset re-loads circuit *include "sky130_res_models.spice

Circuit: *include "sky130_res_models.spice

Doing analysis at TEMP = 27.000000 and TNOM = 27.000000


No. of Data Rows : 1
Reset re-loads circuit *include "sky130_res_models.spice

Circuit: *include "sky130_res_models.spice

Doing analysis at TEMP = 27.000000 and TNOM = 27.000000


No. of Data Rows : 1
Reset re-loads circuit *include "sky130_res_models.spice

Circuit: *include "sky130_res_modeUsing SPARSE 1.3 as Direct Linear Solver
Using SPARSE 1.3 as Direct Linear Solver
Using SPARSE 1.3 as Direct Linear Solver
Using SPARSE 1.3 as Direct Linear Solver
Using SPARSE 1.3 as Direct Linear Solver
Using SPARSE 1.3 as Direct Linear Solver
Using SPARSE 1.3 as Direct Linear Solver
Using SPARSE 1.3 as Direct Linear Solver
Using SPARSE 1.3 as Direct Linear Solver
Using SPARSE 1.3 as Direct Linear Solver
Using SPARSE 1.3 as Direct Linear Solver
Using SPARSE 1.3 as Direct Linear Solver
Using SPARSE 1.3 as Direct Linear Solver
Using SPARSE 1.3 as Direct Linear Solver
Using SPARSE 1.3 as Direct Linear Solver
Using SPARSE 1.3 as Direct Linear Solver
Using SPARSE 1.3 as Direct Linear Solver
Using SPARSE 1.3 as Direct Linear Solver
Using SPARSE 1.3 as Direct Linear Solver
Using SPARSE 1.3 as Direct Linear Solver
Using SPARSE 1.3 as Direct Linear Solver
Using SPARSE 1.3 as Direct Linear Solver
Using SPARSE 1.3 as Direct Linear Solver
ls.spice

Doing analysis at TEMP = 27.000000 and TNOM = 27.000000


No. of Data Rows : 1
Reset re-loads circuit *include "sky130_res_models.spice

Circuit: *include "sky130_res_models.spice

Doing analysis at TEMP = 27.000000 and TNOM = 27.000000


No. of Data Rows : 1
Reset re-loads circuit *include "sky130_res_models.spice

Circuit: *include "sky130_res_models.spice

Doing analysis at TEMP = 27.000000 and TNOM = 27.000000


No. of Data Rows : 1
Reset re-loads circuit *include "sky130_res_models.spice

Circuit: *include "sky130_res_models.spice

Doing analysis at TEMP = 27.000000 and TNOM = 27.000000


No. of Data Rows : 1
Reset re-loads circuit *include "sky130_res_models.spice

Circuit: *include "sky130_res_models.spice

Doing analysis at TEMP = 27.000000 and TNOM = 27.000000


No. of Data Rows : 1
Reset re-loads circuit *include "sky130_res_models.spice

Circuit: *include "sky130_res_models.spice

Doing analysis at TEMP = 27.000000 and TNOM = 27.000000


No. of Data Rows : 1
Reset re-loads circuit *include "sky130_res_models.spice

Circuit: *include "sky130_res_models.spice

Doing analysis at TEMP = 27.000000 and TNOM = 27.000000


No. of Data Rows : 1
Reset re-loads circuit *include "sky130_res_models.spice

Circuit: *include "sky130_res_models.spice

Doing analysis at TEMP = 27.000000 and TNOM = 27.000000


No. of Data Rows : 1
Reset re-loads circuit *include "sky130_res_models.spice

Circuit: *include "sky130_res_models.spice

Doing analysis at TEMP = 27.000000 and TNOM = 27.000000


No. of Data Rows : 1
Reset re-loads circuit *include "sky130_res_models.spice

Circuit: *include "sky130_res_models.spice

Doing analysis at TEMP = 27.000000 and TNOM = 27.000000


No. of Data Rows : 1
Reset re-loads circuit *include "sky130_res_models.spice

Circuit: *include "sky130_res_models.spice

Doing analysis at TEMP = 27.000000 and TNOM = 27.000000


No. of Data Rows : 1
Reset re-loads circuit *include "sky130_res_models.spice

Circuit: *include "sky130_res_models.spice

Doing analysis at TEMP = 27.000000 and TNOM = 27.000000


No. of Data Rows : 1
Reset re-loads circuit *include "sky130_res_models.spice

Circuit: *include "sky130_res_models.spice

Doing analysis at TEMP = 27.000000 and TNOM = 27.000000


No. of Data Rows : 1
Reset re-loads circuit *include "sky130_res_models.spice

Circuit: *include "sky130_res_models.spice

Doing analysis at TEMP = 27.000000 and TNOM = 27.000000


No. of Data Rows : 1
Reset re-loads circuit *include "sky130_res_models.spice

Circuit: *include "sky130_res_models.spice

Doing analysis at TEMP = 27.000000 and TNOM = 27.000000


No. of Data Rows : 1
Reset re-loads circuit *include "sky130_res_models.spice

Circuit: *include "sky130_res_models.spice

Doing analysis at TEMP = 27.000000 and TNOM = 27.000000


No. of Data Rows : 1
Reset re-loads circuit *include "sky130_res_models.spice

Circuit: *include "sky130_res_models.spice

Doing analysis at TEMP = 27.000000 and TNOM = 27.000000


No. of Data Rows : 1
Reset re-loads circuit *include "sky130_res_models.spice

Circuit: *include "sky130_res_models.spice

Doing analysis at TEMP = 27.000000 and TNOM = 27.000000


No. of Data Rows : 1
Reset re-loads circuit *include "sky130_res_models.spice

Circuit: *include "sky130_res_models.spice

Doing analysis at TEMP = 27.000000 and TNOM = 27.000000


No. of Data Rows : 1
Reset re-loads circuit *include "sky130_res_models.spice

Circuit: *include "sky130_res_models.spice

Doing analysis at TEMP = 27.000000 and TNOM = 27.000000


No. of Data Rows : 1
Reset re-loads circuit *include "sky130_res_models.spice

Circuit: *include "sky130_res_models.spice

Doing analysis at TEMP = 27.000000 and TNOM = 27.000000


No. of Data Rows : 1
Reset re-loads circuit *include "sky130_res_models.spice

Circuit: *include "sky130_res_models.spice

Doing analysis at TEMP = 27.000000 and TNOM = 27.000000


No. of Data Rows : 1
Reset re-loads circuit *include "sky130_res_models.spice

Circuit: *include "sky130_res_models.spice

Doing analysis at TEMP = 27.000000 and TNOM = 27.000000


No. of Data Rows : 1
Reset re-loads circuit *iUsing SPARSE 1.3 as Direct Linear Solver
Using SPARSE 1.3 as Direct Linear Solver
Using SPARSE 1.3 as Direct Linear Solver
Using SPARSE 1.3 as Direct Linear Solver
Using SPARSE 1.3 as Direct Linear Solver
Using SPARSE 1.3 as Direct Linear Solver
Using SPARSE 1.3 as Direct Linear Solver
Using SPARSE 1.3 as Direct Linear Solver
Using SPARSE 1.3 as Direct Linear Solver
Using SPARSE 1.3 as Direct Linear Solver
Using SPARSE 1.3 as Direct Linear Solver
Using SPARSE 1.3 as Direct Linear Solver
Using SPARSE 1.3 as Direct Linear Solver
Using SPARSE 1.3 as Direct Linear Solver
Using SPARSE 1.3 as Direct Linear Solver
Using SPARSE 1.3 as Direct Linear Solver
Using SPARSE 1.3 as Direct Linear Solver
Using SPARSE 1.3 as Direct Linear Solver
Using SPARSE 1.3 as Direct Linear Solver
Using SPARSE 1.3 as Direct Linear Solver
Using SPARSE 1.3 as Direct Linear Solver
Using SPARSE 1.3 as Direct Linear Solver
nclude "sky130_res_models.spice

Circuit: *include "sky130_res_models.spice

Doing analysis at TEMP = 27.000000 and TNOM = 27.000000


No. of Data Rows : 1
Reset re-loads circuit *include "sky130_res_models.spice

Circuit: *include "sky130_res_models.spice

Doing analysis at TEMP = 27.000000 and TNOM = 27.000000


No. of Data Rows : 1
Reset re-loads circuit *include "sky130_res_models.spice

Circuit: *include "sky130_res_models.spice

Doing analysis at TEMP = 27.000000 and TNOM = 27.000000


No. of Data Rows : 1
Reset re-loads circuit *include "sky130_res_models.spice

Circuit: *include "sky130_res_models.spice

Doing analysis at TEMP = 27.000000 and TNOM = 27.000000


No. of Data Rows : 1
Reset re-loads circuit *include "sky130_res_models.spice

Circuit: *include "sky130_res_models.spice

Doing analysis at TEMP = 27.000000 and TNOM = 27.000000


No. of Data Rows : 1
Reset re-loads circuit *include "sky130_res_models.spice

Circuit: *include "sky130_res_models.spice

Doing analysis at TEMP = 27.000000 and TNOM = 27.000000


No. of Data Rows : 1
Reset re-loads circuit *include "sky130_res_models.spice

Circuit: *include "sky130_res_models.spice

Doing analysis at TEMP = 27.000000 and TNOM = 27.000000


No. of Data Rows : 1
Reset re-loads circuit *include "sky130_res_models.spice

Circuit: *include "sky130_res_models.spice

Doing analysis at TEMP = 27.000000 and TNOM = 27.000000


No. of Data Rows : 1
Reset re-loads circuit *include "sky130_res_models.spice

Circuit: *include "sky130_res_models.spice

Doing analysis at TEMP = 27.000000 and TNOM = 27.000000


No. of Data Rows : 1
Reset re-loads circuit *include "sky130_res_models.spice

Circuit: *include "sky130_res_models.spice

Doing analysis at TEMP = 27.000000 and TNOM = 27.000000


No. of Data Rows : 1
Reset re-loads circuit *include "sky130_res_models.spice

Circuit: *include "sky130_res_models.spice

Doing analysis at TEMP = 27.000000 and TNOM = 27.000000


No. of Data Rows : 1
Reset re-loads circuit *include "sky130_res_models.spice

Circuit: *include "sky130_res_models.spice

Doing analysis at TEMP = 27.000000 and TNOM = 27.000000


No. of Data Rows : 1
Reset re-loads circuit *include "sky130_res_models.spice

Circuit: *include "sky130_res_models.spice

Doing analysis at TEMP = 27.000000 and TNOM = 27.000000


No. of Data Rows : 1
Reset re-loads circuit *include "sky130_res_models.spice

Circuit: *include "sky130_res_models.spice

Doing analysis at TEMP = 27.000000 and TNOM = 27.000000


No. of Data Rows : 1
Reset re-loads circuit *include "sky130_res_models.spice

Circuit: *include "sky130_res_models.spice

Doing analysis at TEMP = 27.000000 and TNOM = 27.000000


No. of Data Rows : 1
Reset re-loads circuit *include "sky130_res_models.spice

Circuit: *include "sky130_res_models.spice

Doing analysis at TEMP = 27.000000 and TNOM = 27.000000


No. of Data Rows : 1
Reset re-loads circuit *include "sky130_res_models.spice

Circuit: *include "sky130_res_models.spice

Doing analysis at TEMP = 27.000000 and TNOM = 27.000000


No. of Data Rows : 1
Reset re-loads circuit *include "sky130_res_models.spice

Circuit: *include "sky130_res_models.spice

Doing analysis at TEMP = 27.000000 and TNOM = 27.000000


No. of Data Rows : 1
Reset re-loads circuit *include "sky130_res_models.spice

Circuit: *include "sky130_res_models.spice

Doing analysis at TEMP = 27.000000 and TNOM = 27.000000


No. of Data Rows : 1
Reset re-loads circuit *include "sky130_res_models.spice

Circuit: *include "sky130_res_models.spice

Doing analysis at TEMP = 27.000000 and TNOM = 27.000000


No. of Data Rows : 1
Reset re-loads circuit *include "sky130_res_models.spice

Circuit: *include "sky130_res_models.spice

Doing analysis at TEMP = 27.000000 and TNOM = 27.000000


No. of Data Rows : 1
Reset re-loads circuit *include "sky130_res_models.spice

Circuit: *include "sky130_res_models.spice

Doing analysis at TEMP = 27.000000 and TNOM = 27.000000


No. of Data Rows : 1
Reset re-loads circuit *include "sky130_res_models.spice

Circuit: *include "sky130_res_models.spice

Doing analysis at TEMP = 27.000000 anUsing SPARSE 1.3 as Direct Linear Solver
Using SPARSE 1.3 as Direct Linear Solver
Using SPARSE 1.3 as Direct Linear Solver
Using SPARSE 1.3 as Direct Linear Solver
Using SPARSE 1.3 as Direct Linear Solver
Using SPARSE 1.3 as Direct Linear Solver
Using SPARSE 1.3 as Direct Linear Solver
Using SPARSE 1.3 as Direct Linear Solver
Using SPARSE 1.3 as Direct Linear Solver
Using SPARSE 1.3 as Direct Linear Solver
Using SPARSE 1.3 as Direct Linear Solver
Using SPARSE 1.3 as Direct Linear Solver
Using SPARSE 1.3 as Direct Linear Solver
Using SPARSE 1.3 as Direct Linear Solver
Using SPARSE 1.3 as Direct Linear Solver
Using SPARSE 1.3 as Direct Linear Solver
Using SPARSE 1.3 as Direct Linear Solver
Using SPARSE 1.3 as Direct Linear Solver
Using SPARSE 1.3 as Direct Linear Solver
Using SPARSE 1.3 as Direct Linear Solver
Using SPARSE 1.3 as Direct Linear Solver
Using SPARSE 1.3 as Direct Linear Solver
Using SPARSE 1.3 as Direct Linear Solver
d TNOM = 27.000000


No. of Data Rows : 1
Reset re-loads circuit *include "sky130_res_models.spice

Circuit: *include "sky130_res_models.spice

Doing analysis at TEMP = 27.000000 and TNOM = 27.000000


No. of Data Rows : 1
Reset re-loads circuit *include "sky130_res_models.spice

Circuit: *include "sky130_res_models.spice

Doing analysis at TEMP = 27.000000 and TNOM = 27.000000


No. of Data Rows : 1
Reset re-loads circuit *include "sky130_res_models.spice

Circuit: *include "sky130_res_models.spice

Doing analysis at TEMP = 27.000000 and TNOM = 27.000000


No. of Data Rows : 1
Reset re-loads circuit *include "sky130_res_models.spice

Circuit: *include "sky130_res_models.spice

Doing analysis at TEMP = 27.000000 and TNOM = 27.000000


No. of Data Rows : 1
Reset re-loads circuit *include "sky130_res_models.spice

Circuit: *include "sky130_res_models.spice

Doing analysis at TEMP = 27.000000 and TNOM = 27.000000


No. of Data Rows : 1
Reset re-loads circuit *include "sky130_res_models.spice

Circuit: *include "sky130_res_models.spice

Doing analysis at TEMP = 27.000000 and TNOM = 27.000000


No. of Data Rows : 1
Reset re-loads circuit *include "sky130_res_models.spice

Circuit: *include "sky130_res_models.spice

Doing analysis at TEMP = 27.000000 and TNOM = 27.000000


No. of Data Rows : 1
Reset re-loads circuit *include "sky130_res_models.spice

Circuit: *include "sky130_res_models.spice

Doing analysis at TEMP = 27.000000 and TNOM = 27.000000


No. of Data Rows : 1
Reset re-loads circuit *include "sky130_res_models.spice

Circuit: *include "sky130_res_models.spice

Doing analysis at TEMP = 27.000000 and TNOM = 27.000000


No. of Data Rows : 1
Reset re-loads circuit *include "sky130_res_models.spice

Circuit: *include "sky130_res_models.spice

Doing analysis at TEMP = 27.000000 and TNOM = 27.000000


No. of Data Rows : 1
Reset re-loads circuit *include "sky130_res_models.spice

Circuit: *include "sky130_res_models.spice

Doing analysis at TEMP = 27.000000 and TNOM = 27.000000


No. of Data Rows : 1
Reset re-loads circuit *include "sky130_res_models.spice

Circuit: *include "sky130_res_models.spice

Doing analysis at TEMP = 27.000000 and TNOM = 27.000000


No. of Data Rows : 1
Reset re-loads circuit *include "sky130_res_models.spice

Circuit: *include "sky130_res_models.spice

Doing analysis at TEMP = 27.000000 and TNOM = 27.000000


No. of Data Rows : 1
Reset re-loads circuit *include "sky130_res_models.spice

Circuit: *include "sky130_res_models.spice

Doing analysis at TEMP = 27.000000 and TNOM = 27.000000


No. of Data Rows : 1
Reset re-loads circuit *include "sky130_res_models.spice

Circuit: *include "sky130_res_models.spice

Doing analysis at TEMP = 27.000000 and TNOM = 27.000000


No. of Data Rows : 1
Reset re-loads circuit *include "sky130_res_models.spice

Circuit: *include "sky130_res_models.spice

Doing analysis at TEMP = 27.000000 and TNOM = 27.000000


No. of Data Rows : 1
Reset re-loads circuit *include "sky130_res_models.spice

Circuit: *include "sky130_res_models.spice

Doing analysis at TEMP = 27.000000 and TNOM = 27.000000


No. of Data Rows : 1
Reset re-loads circuit *include "sky130_res_models.spice

Circuit: *include "sky130_res_models.spice

Doing analysis at TEMP = 27.000000 and TNOM = 27.000000


No. of Data Rows : 1
Reset re-loads circuit *include "sky130_res_models.spice

Circuit: *include "sky130_res_models.spice

Doing analysis at TEMP = 27.000000 and TNOM = 27.000000


No. of Data Rows : 1
Reset re-loads circuit *include "sky130_res_models.spice

Circuit: *include "sky130_res_models.spice

Doing analysis at TEMP = 27.000000 and TNOM = 27.000000


No. of Data Rows : 1
Reset re-loads circuit *include "sky130_res_models.spice

Circuit: *include "sky130_res_models.spice

Doing analysis at TEMP = 27.000000 and TNOM = 27.000000


No. of Data Rows : 1
Reset re-loads circuit *include "sky130_res_models.spice

Circuit: *include "sky130_res_models.spice

Doing analysis at TEMP = 27.000000 and TNOM = 27.000000


No. of Data Rows : 1
Reset re-loads circuit *include "sky130_res_models.spice

Circuit: *inclUsing SPARSE 1.3 as Direct Linear Solver
Using SPARSE 1.3 as Direct Linear Solver
Using SPARSE 1.3 as Direct Linear Solver
Using SPARSE 1.3 as Direct Linear Solver
Using SPARSE 1.3 as Direct Linear Solver
Using SPARSE 1.3 as Direct Linear Solver
Using SPARSE 1.3 as Direct Linear Solver
Using SPARSE 1.3 as Direct Linear Solver
Using SPARSE 1.3 as Direct Linear Solver
Using SPARSE 1.3 as Direct Linear Solver
Using SPARSE 1.3 as Direct Linear Solver
Using SPARSE 1.3 as Direct Linear Solver
Using SPARSE 1.3 as Direct Linear Solver
Using SPARSE 1.3 as Direct Linear Solver
Using SPARSE 1.3 as Direct Linear Solver
Using SPARSE 1.3 as Direct Linear Solver
Using SPARSE 1.3 as Direct Linear Solver
Using SPARSE 1.3 as Direct Linear Solver
Using SPARSE 1.3 as Direct Linear Solver
Using SPARSE 1.3 as Direct Linear Solver
Using SPARSE 1.3 as Direct Linear Solver
Using SPARSE 1.3 as Direct Linear Solver
Using SPARSE 1.3 as Direct Linear Solver
ude "sky130_res_models.spice

Doing analysis at TEMP = 27.000000 and TNOM = 27.000000


No. of Data Rows : 1
Reset re-loads circuit *include "sky130_res_models.spice

Circuit: *include "sky130_res_models.spice

Doing analysis at TEMP = 27.000000 and TNOM = 27.000000


No. of Data Rows : 1
Reset re-loads circuit *include "sky130_res_models.spice

Circuit: *include "sky130_res_models.spice

Doing analysis at TEMP = 27.000000 and TNOM = 27.000000


No. of Data Rows : 1
Reset re-loads circuit *include "sky130_res_models.spice

Circuit: *include "sky130_res_models.spice

Doing analysis at TEMP = 27.000000 and TNOM = 27.000000


No. of Data Rows : 1
Reset re-loads circuit *include "sky130_res_models.spice

Circuit: *include "sky130_res_models.spice

Doing analysis at TEMP = 27.000000 and TNOM = 27.000000


No. of Data Rows : 1
Reset re-loads circuit *include "sky130_res_models.spice

Circuit: *include "sky130_res_models.spice

Doing analysis at TEMP = 27.000000 and TNOM = 27.000000


No. of Data Rows : 1
Reset re-loads circuit *include "sky130_res_models.spice

Circuit: *include "sky130_res_models.spice

Doing analysis at TEMP = 27.000000 and TNOM = 27.000000


No. of Data Rows : 1
Reset re-loads circuit *include "sky130_res_models.spice

Circuit: *include "sky130_res_models.spice

Doing analysis at TEMP = 27.000000 and TNOM = 27.000000


No. of Data Rows : 1
Reset re-loads circuit *include "sky130_res_models.spice

Circuit: *include "sky130_res_models.spice

Doing analysis at TEMP = 27.000000 and TNOM = 27.000000


No. of Data Rows : 1
Reset re-loads circuit *include "sky130_res_models.spice

Circuit: *include "sky130_res_models.spice

Doing analysis at TEMP = 27.000000 and TNOM = 27.000000


No. of Data Rows : 1
Reset re-loads circuit *include "sky130_res_models.spice

Circuit: *include "sky130_res_models.spice

Doing analysis at TEMP = 27.000000 and TNOM = 27.000000


No. of Data Rows : 1
Reset re-loads circuit *include "sky130_res_models.spice

Circuit: *include "sky130_res_models.spice

Doing analysis at TEMP = 27.000000 and TNOM = 27.000000


No. of Data Rows : 1
Reset re-loads circuit *include "sky130_res_models.spice

Circuit: *include "sky130_res_models.spice

Doing analysis at TEMP = 27.000000 and TNOM = 27.000000


No. of Data Rows : 1
Reset re-loads circuit *include "sky130_res_models.spice

Circuit: *include "sky130_res_models.spice

Doing analysis at TEMP = 27.000000 and TNOM = 27.000000


No. of Data Rows : 1
Reset re-loads circuit *include "sky130_res_models.spice

Circuit: *include "sky130_res_models.spice

Doing analysis at TEMP = 27.000000 and TNOM = 27.000000


No. of Data Rows : 1
Reset re-loads circuit *include "sky130_res_models.spice

Circuit: *include "sky130_res_models.spice

Doing analysis at TEMP = 27.000000 and TNOM = 27.000000


No. of Data Rows : 1
Reset re-loads circuit *include "sky130_res_models.spice

Circuit: *include "sky130_res_models.spice

Doing analysis at TEMP = 27.000000 and TNOM = 27.000000


No. of Data Rows : 1
Reset re-loads circuit *include "sky130_res_models.spice

Circuit: *include "sky130_res_models.spice

Doing analysis at TEMP = 27.000000 and TNOM = 27.000000


No. of Data Rows : 1
Reset re-loads circuit *include "sky130_res_models.spice

Circuit: *include "sky130_res_models.spice

Doing analysis at TEMP = 27.000000 and TNOM = 27.000000


No. of Data Rows : 1
Reset re-loads circuit *include "sky130_res_models.spice

Circuit: *include "sky130_res_models.spice

Doing analysis at TEMP = 27.000000 and TNOM = 27.000000


No. of Data Rows : 1
Reset re-loads circuit *include "sky130_res_models.spice

Circuit: *include "sky130_res_models.spice

Doing analysis at TEMP = 27.000000 and TNOM = 27.000000


No. of Data Rows : 1
Reset re-loads circuit *include "sky130_res_models.spice

Circuit: *include "sky130_res_models.spice

Doing analysis at TEMP = 27.000000 and TNOM = 27.000000


No. of Data Rows : 1
Reset re-loads circuit *include "sky130_res_models.spice

Circuit: *include "sky130_res_models.spice

Doing analysis at TEMP = 27.000000 and TNOM = 27.000000


No. of Data Rows : 1
ResetUsing SPARSE 1.3 as Direct Linear Solver
Using SPARSE 1.3 as Direct Linear Solver
Using SPARSE 1.3 as Direct Linear Solver
Using SPARSE 1.3 as Direct Linear Solver
Using SPARSE 1.3 as Direct Linear Solver
Using SPARSE 1.3 as Direct Linear Solver
Using SPARSE 1.3 as Direct Linear Solver
Using SPARSE 1.3 as Direct Linear Solver
Using SPARSE 1.3 as Direct Linear Solver
Using SPARSE 1.3 as Direct Linear Solver
Using SPARSE 1.3 as Direct Linear Solver
Using SPARSE 1.3 as Direct Linear Solver
Using SPARSE 1.3 as Direct Linear Solver
Using SPARSE 1.3 as Direct Linear Solver
Using SPARSE 1.3 as Direct Linear Solver
Using SPARSE 1.3 as Direct Linear Solver
Using SPARSE 1.3 as Direct Linear Solver
Using SPARSE 1.3 as Direct Linear Solver
Using SPARSE 1.3 as Direct Linear Solver
Using SPARSE 1.3 as Direct Linear Solver
Using SPARSE 1.3 as Direct Linear Solver
Using SPARSE 1.3 as Direct Linear Solver
 re-loads circuit *include "sky130_res_models.spice

Circuit: *include "sky130_res_models.spice

Doing analysis at TEMP = 27.000000 and TNOM = 27.000000


No. of Data Rows : 1
Reset re-loads circuit *include "sky130_res_models.spice

Circuit: *include "sky130_res_models.spice

Doing analysis at TEMP = 27.000000 and TNOM = 27.000000


No. of Data Rows : 1
Reset re-loads circuit *include "sky130_res_models.spice

Circuit: *include "sky130_res_models.spice

Doing analysis at TEMP = 27.000000 and TNOM = 27.000000


No. of Data Rows : 1
Reset re-loads circuit *include "sky130_res_models.spice

Circuit: *include "sky130_res_models.spice

Doing analysis at TEMP = 27.000000 and TNOM = 27.000000


No. of Data Rows : 1
Reset re-loads circuit *include "sky130_res_models.spice

Circuit: *include "sky130_res_models.spice

Doing analysis at TEMP = 27.000000 and TNOM = 27.000000


No. of Data Rows : 1
Reset re-loads circuit *include "sky130_res_models.spice

Circuit: *include "sky130_res_models.spice

Doing analysis at TEMP = 27.000000 and TNOM = 27.000000


No. of Data Rows : 1
Reset re-loads circuit *include "sky130_res_models.spice

Circuit: *include "sky130_res_models.spice

Doing analysis at TEMP = 27.000000 and TNOM = 27.000000


No. of Data Rows : 1
Reset re-loads circuit *include "sky130_res_models.spice

Circuit: *include "sky130_res_models.spice

Doing analysis at TEMP = 27.000000 and TNOM = 27.000000


No. of Data Rows : 1
Reset re-loads circuit *include "sky130_res_models.spice

Circuit: *include "sky130_res_models.spice

Doing analysis at TEMP = 27.000000 and TNOM = 27.000000


No. of Data Rows : 1
Reset re-loads circuit *include "sky130_res_models.spice

Circuit: *include "sky130_res_models.spice

Doing analysis at TEMP = 27.000000 and TNOM = 27.000000


No. of Data Rows : 1
Reset re-loads circuit *include "sky130_res_models.spice

Circuit: *include "sky130_res_models.spice

Doing analysis at TEMP = 27.000000 and TNOM = 27.000000


No. of Data Rows : 1
Reset re-loads circuit *include "sky130_res_models.spice

Circuit: *include "sky130_res_models.spice

Doing analysis at TEMP = 27.000000 and TNOM = 27.000000


No. of Data Rows : 1
Reset re-loads circuit *include "sky130_res_models.spice

Circuit: *include "sky130_res_models.spice

Doing analysis at TEMP = 27.000000 and TNOM = 27.000000


No. of Data Rows : 1
Reset re-loads circuit *include "sky130_res_models.spice

Circuit: *include "sky130_res_models.spice

Doing analysis at TEMP = 27.000000 and TNOM = 27.000000


No. of Data Rows : 1
Reset re-loads circuit *include "sky130_res_models.spice

Circuit: *include "sky130_res_models.spice

Doing analysis at TEMP = 27.000000 and TNOM = 27.000000


No. of Data Rows : 1
Reset re-loads circuit *include "sky130_res_models.spice

Circuit: *include "sky130_res_models.spice

Doing analysis at TEMP = 27.000000 and TNOM = 27.000000


No. of Data Rows : 1
Reset re-loads circuit *include "sky130_res_models.spice

Circuit: *include "sky130_res_models.spice

Doing analysis at TEMP = 27.000000 and TNOM = 27.000000


No. of Data Rows : 1
Reset re-loads circuit *include "sky130_res_models.spice

Circuit: *include "sky130_res_models.spice

Doing analysis at TEMP = 27.000000 and TNOM = 27.000000


No. of Data Rows : 1
Reset re-loads circuit *include "sky130_res_models.spice

Circuit: *include "sky130_res_models.spice

Doing analysis at TEMP = 27.000000 and TNOM = 27.000000


No. of Data Rows : 1
Reset re-loads circuit *include "sky130_res_models.spice

Circuit: *include "sky130_res_models.spice

Doing analysis at TEMP = 27.000000 and TNOM = 27.000000


No. of Data Rows : 1
Reset re-loads circuit *include "sky130_res_models.spice

Circuit: *include "sky130_res_models.spice

Doing analysis at TEMP = 27.000000 and TNOM = 27.000000


No. of Data Rows : 1
Reset re-loads circuit *include "sky130_res_models.spice

Circuit: *include "sky130_res_models.spice

Doing analysis at TEMP = 27.000000 and TNOM = 27.000000


No. of Data Rows : 1
Reset re-loads circuit *include "sky130_res_models.spice

Circuit: *include "sky130_res_models.spice

Doing analysis atUsing SPARSE 1.3 as Direct Linear Solver
Using SPARSE 1.3 as Direct Linear Solver
Using SPARSE 1.3 as Direct Linear Solver
Using SPARSE 1.3 as Direct Linear Solver
Using SPARSE 1.3 as Direct Linear Solver
Using SPARSE 1.3 as Direct Linear Solver
Using SPARSE 1.3 as Direct Linear Solver
Using SPARSE 1.3 as Direct Linear Solver
Using SPARSE 1.3 as Direct Linear Solver
Using SPARSE 1.3 as Direct Linear Solver
Using SPARSE 1.3 as Direct Linear Solver
Using SPARSE 1.3 as Direct Linear Solver
Using SPARSE 1.3 as Direct Linear Solver
Using SPARSE 1.3 as Direct Linear Solver
 TEMP = 27.000000 and TNOM = 27.000000


No. of Data Rows : 1
Reset re-loads circuit *include "sky130_res_models.spice

Circuit: *include "sky130_res_models.spice

Doing analysis at TEMP = 27.000000 and TNOM = 27.000000


No. of Data Rows : 1
Reset re-loads circuit *include "sky130_res_models.spice

Circuit: *include "sky130_res_models.spice

Doing analysis at TEMP = 27.000000 and TNOM = 27.000000


No. of Data Rows : 1
Reset re-loads circuit *include "sky130_res_models.spice

Circuit: *include "sky130_res_models.spice

Doing analysis at TEMP = 27.000000 and TNOM = 27.000000


No. of Data Rows : 1
Reset re-loads circuit *include "sky130_res_models.spice

Circuit: *include "sky130_res_models.spice

Doing analysis at TEMP = 27.000000 and TNOM = 27.000000


No. of Data Rows : 1
Reset re-loads circuit *include "sky130_res_models.spice

Circuit: *include "sky130_res_models.spice

Doing analysis at TEMP = 27.000000 and TNOM = 27.000000


No. of Data Rows : 1
Reset re-loads circuit *include "sky130_res_models.spice

Circuit: *include "sky130_res_models.spice

Doing analysis at TEMP = 27.000000 and TNOM = 27.000000


No. of Data Rows : 1
Reset re-loads circuit *include "sky130_res_models.spice

Circuit: *include "sky130_res_models.spice

Doing analysis at TEMP = 27.000000 and TNOM = 27.000000


No. of Data Rows : 1
Reset re-loads circuit *include "sky130_res_models.spice

Circuit: *include "sky130_res_models.spice

Doing analysis at TEMP = 27.000000 and TNOM = 27.000000


[...]
Using SPARSE 1.3 as Direct Linear Solver
Using SPARSE 1.3 as Direct Linear Solver
Using SPARSE 1.3 as Direct Linear Solver
Using SPARSE 1.3 as Direct Linear Solver
Using SPARSE 1.3 as Direct Linear Solver
Using SPARSE 1.3 as Direct Linear Solver
Using SPARSE 1.3 as Direct Linear Solver
Using SPARSE 1.3 as Direct Linear Solver
Using SPARSE 1.3 as Direct Linear Solver
Using SPARSE 1.3 as Direct Linear Solver
Using SPARSE 1.3 as Direct Linear Solver
Using SPARSE 1.3 as Direct Linear Solver
nclude "sky130_res_models.spice

Circuit: *include "sky130_res_models.spice

Doing analysis at TEMP = 27.000000 and TNOM = 27.000000


No. of Data Rows : 1
Reset re-loads circuit *include "sky130_res_models.spice

Circuit: *include "sky130_res_models.spice

Doing analysis at TEMP = 27.000000 and TNOM = 27.000000


No. of Data Rows : 1
Reset re-loads circuit *include "sky130_res_models.spice

Circuit: *include "sky130_res_models.spice

Doing analysis at TEMP = 27.000000 and TNOM = 27.000000


No. of Data Rows : 1
Reset re-loads circuit *include "sky130_res_models.spice

Circuit: *include "sky130_res_models.spice

Doing analysis at TEMP = 27.000000 and TNOM = 27.000000


No. of Data Rows : 1
Reset re-loads circuit *include "sky130_res_models.spice

Circuit: *include "sky130_res_models.spice

Doing analysis at TEMP = 27.000000 and TNOM = 27.000000


No. of Data Rows : 1
Reset re-loads circuit *include "sky130_res_models.spice

Circuit: *include "sky130_res_models.spice

Doing analysis at TEMP = 27.000000 and TNOM = 27.000000


No. of Data Rows : 1
Reset re-loads circuit *include "sky130_res_models.spice

Circuit: *include "sky130_res_models.spice

Doing analysis at TEMP = 27.000000 and TNOM = 27.000000


No. of Data Rows : 1
Reset re-loads circuit *include "sky130_res_models.spice

Circuit: *include "sky130_res_models.spice

Doing analysis at TEMP = 27.000000 and TNOM = 27.000000


No. of Data Rows : 1
Reset re-loads circuit *include "sky130_res_models.spice

Circuit: *include "sky130_res_models.spice

Doing analysis at TEMP = 27.000000 and TNOM = 27.000000


No. of Data Rows : 1
Reset re-loads circuit *include "sky130_res_models.spice

Circuit: *include "sky130_res_models.spice

Doing analysis at TEMP = 27.000000 and TNOM = 27.000000


No. of Data Rows : 1
Reset re-loads circuit *include "sky130_res_models.spice

Circuit: *include "sky130_res_models.spice

Doing analysis at TEMP = 27.000000 and TNOM = 27.000000


No. of Data Rows : 1
Reset re-loads circuit *include "sky130_res_models.spice

Circuit: *include "sky130_res_models.spice

Doing analysis at TEMP = 27.000000 and TNOM = 27.000000


No. of Data Rows : 1
Reset re-loads circuit *include "sky130_res_models.spice

Circuit: *include "sky130_res_models.spice

Doing analysis at TEMP = 27.000000 and TNOM = 27.000000


No. of Data Rows : 1
Reset re-loads circuit *include "sky130_res_models.spice

Circuit: *include "sky130_res_models.spice

Doing analysis at TEMP = 27.000000 and TNOM = 27.000000


No. of Data Rows : 1
Reset re-loads circuit *include "sky130_res_models.spice

Circuit: *include "sky130_res_models.spice

Doing analysis at TEMP = 27.000000 and TNOM = 27.000000


No. of Data Rows : 1
Reset re-loads circuit *include "sky130_res_models.spice

Circuit: *include "sky130_res_models.spice

Doing analysis at TEMP = 27.000000 and TNOM = 27.000000


No. of Data Rows : 1
Reset re-loads circuit *include "sky130_res_models.spice

Circuit: *include "sky130_res_models.spice

Doing analysis at TEMP = 27.000000 and TNOM = 27.000000


No. of Data Rows : 1
Reset re-loads circuit *include "sky130_res_models.spice

Circuit: *include "sky130_res_models.spice

Doing analysis at TEMP = 27.000000 and TNOM = 27.000000


No. of Data Rows : 1
Reset re-loads circuit *include "sky130_res_models.spice

Circuit: *include "sky130_res_models.spice

Doing analysis at TEMP = 27.000000 and TNOM = 27.000000


No. of Data Rows : 1
Reset re-loads circuit *include "sky130_res_models.spice

Circuit: *include "sky130_res_models.spice

Doing analysis at TEMP = 27.000000 and TNOM = 27.000000


No. of Data Rows : 1
Reset re-loads circuit *include "sky130_res_models.spice

Circuit: *include "sky130_res_models.spice

Doing analysis at TEMP = 27.000000 and TNOM = 27.000000


No. of Data Rows : 1
Reset re-loads circuit *include "sky130_res_models.spice

Circuit: *include "sky130_res_models.spice

Doing analysis at TEMP = 27.000000 and TNOM = 27.000000


No. of Data Rows : 1
Reset re-loads circuit *include "sky130_res_models.spice

Circuit: *include "sky130_res_models.spice

Doing analysis at TEMP = 27.000000 anUsing SPARSE 1.3 as Direct Linear Solver
Using SPARSE 1.3 as Direct Linear Solver
Using SPARSE 1.3 as Direct Linear Solver
Using SPARSE 1.3 as Direct Linear Solver
Using SPARSE 1.3 as Direct Linear Solver
Using SPARSE 1.3 as Direct Linear Solver
Using SPARSE 1.3 as Direct Linear Solver
Using SPARSE 1.3 as Direct Linear Solver
Using SPARSE 1.3 as Direct Linear Solver
Using SPARSE 1.3 as Direct Linear Solver
Using SPARSE 1.3 as Direct Linear Solver
Using SPARSE 1.3 as Direct Linear Solver
Using SPARSE 1.3 as Direct Linear Solver
Using SPARSE 1.3 as Direct Linear Solver
Using SPARSE 1.3 as Direct Linear Solver
Using SPARSE 1.3 as Direct Linear Solver
Using SPARSE 1.3 as Direct Linear Solver
Using SPARSE 1.3 as Direct Linear Solver
Using SPARSE 1.3 as Direct Linear Solver
Using SPARSE 1.3 as Direct Linear Solver
Using SPARSE 1.3 as Direct Linear Solver
Using SPARSE 1.3 as Direct Linear Solver
Using SPARSE 1.3 as Direct Linear Solver
d TNOM = 27.000000


No. of Data Rows : 1
Reset re-loads circuit *include "sky130_res_models.spice

Circuit: *include "sky130_res_models.spice

Doing analysis at TEMP = 27.000000 and TNOM = 27.000000


No. of Data Rows : 1
Reset re-loads circuit *include "sky130_res_models.spice

Circuit: *include "sky130_res_models.spice

Doing analysis at TEMP = 27.000000 and TNOM = 27.000000


No. of Data Rows : 1
Reset re-loads circuit *include "sky130_res_models.spice

Circuit: *include "sky130_res_models.spice

Doing analysis at TEMP = 27.000000 and TNOM = 27.000000


No. of Data Rows : 1
Reset re-loads circuit *include "sky130_res_models.spice

Circuit: *include "sky130_res_models.spice

Doing analysis at TEMP = 27.000000 and TNOM = 27.000000


No. of Data Rows : 1
Reset re-loads circuit *include "sky130_res_models.spice

Circuit: *include "sky130_res_models.spice

Doing analysis at TEMP = 27.000000 and TNOM = 27.000000


No. of Data Rows : 1
Reset re-loads circuit *include "sky130_res_models.spice

Circuit: *include "sky130_res_models.spice

Doing analysis at TEMP = 27.000000 and TNOM = 27.000000


No. of Data Rows : 1
Reset re-loads circuit *include "sky130_res_models.spice

Circuit: *include "sky130_res_models.spice

Doing analysis at TEMP = 27.000000 and TNOM = 27.000000


No. of Data Rows : 1
Reset re-loads circuit *include "sky130_res_models.spice

Circuit: *include "sky130_res_models.spice

Doing analysis at TEMP = 27.000000 and TNOM = 27.000000


No. of Data Rows : 1
Reset re-loads circuit *include "sky130_res_models.spice

Circuit: *include "sky130_res_models.spice

Doing analysis at TEMP = 27.000000 and TNOM = 27.000000


No. of Data Rows : 1
Reset re-loads circuit *include "sky130_res_models.spice

Circuit: *include "sky130_res_models.spice

Doing analysis at TEMP = 27.000000 and TNOM = 27.000000


No. of Data Rows : 1
Reset re-loads circuit *include "sky130_res_models.spice

Circuit: *include "sky130_res_models.spice

Doing analysis at TEMP = 27.000000 and TNOM = 27.000000


No. of Data Rows : 1
Reset re-loads circuit *include "sky130_res_models.spice

Circuit: *include "sky130_res_models.spice

Doing analysis at TEMP = 27.000000 and TNOM = 27.000000


No. of Data Rows : 1
Reset re-loads circuit *include "sky130_res_models.spice

Circuit: *include "sky130_res_models.spice

Doing analysis at TEMP = 27.000000 and TNOM = 27.000000


No. of Data Rows : 1
Reset re-loads circuit *include "sky130_res_models.spice

Circuit: *include "sky130_res_models.spice

Doing analysis at TEMP = 27.000000 and TNOM = 27.000000


No. of Data Rows : 1
Reset re-loads circuit *include "sky130_res_models.spice

Circuit: *include "sky130_res_models.spice

Doing analysis at TEMP = 27.000000 and TNOM = 27.000000


No. of Data Rows : 1
Reset re-loads circuit *include "sky130_res_models.spice

Circuit: *include "sky130_res_models.spice

Doing analysis at TEMP = 27.000000 and TNOM = 27.000000


No. of Data Rows : 1
Reset re-loads circuit *include "sky130_res_models.spice

Circuit: *include "sky130_res_models.spice

Doing analysis at TEMP = 27.000000 and TNOM = 27.000000


No. of Data Rows : 1
Reset re-loads circuit *include "sky130_res_models.spice

Circuit: *include "sky130_res_models.spice

Doing analysis at TEMP = 27.000000 and TNOM = 27.000000


No. of Data Rows : 1
Reset re-loads circuit *include "sky130_res_models.spice

Circuit: *include "sky130_res_models.spice

Doing analysis at TEMP = 27.000000 and TNOM = 27.000000


No. of Data Rows : 1
Reset re-loads circuit *include "sky130_res_models.spice

Circuit: *include "sky130_res_models.spice

Doing analysis at TEMP = 27.000000 and TNOM = 27.000000


No. of Data Rows : 1
Reset re-loads circuit *include "sky130_res_models.spice

Circuit: *include "sky130_res_models.spice

Doing analysis at TEMP = 27.000000 and TNOM = 27.000000


No. of Data Rows : 1
Reset re-loads circuit *include "sky130_res_models.spice

Circuit: *include "sky130_res_models.spice

Doing analysis at TEMP = 27.000000 and TNOM = 27.000000


No. of Data Rows : 1
Reset re-loads circuit *include "sky130_res_models.spice

Circuit: *inclUsing SPARSE 1.3 as Direct Linear Solver
Using SPARSE 1.3 as Direct Linear Solver
Using SPARSE 1.3 as Direct Linear Solver
Using SPARSE 1.3 as Direct Linear Solver
Using SPARSE 1.3 as Direct Linear Solver
Using SPARSE 1.3 as Direct Linear Solver
Using SPARSE 1.3 as Direct Linear Solver
Using SPARSE 1.3 as Direct Linear Solver
Using SPARSE 1.3 as Direct Linear Solver
Using SPARSE 1.3 as Direct Linear Solver
Using SPARSE 1.3 as Direct Linear Solver
Using SPARSE 1.3 as Direct Linear Solver
Using SPARSE 1.3 as Direct Linear Solver
Using SPARSE 1.3 as Direct Linear Solver
Using SPARSE 1.3 as Direct Linear Solver
Using SPARSE 1.3 as Direct Linear Solver
Using SPARSE 1.3 as Direct Linear Solver
Using SPARSE 1.3 as Direct Linear Solver
Using SPARSE 1.3 as Direct Linear Solver
Using SPARSE 1.3 as Direct Linear Solver
Using SPARSE 1.3 as Direct Linear Solver
Using SPARSE 1.3 as Direct Linear Solver
Using SPARSE 1.3 as Direct Linear Solver
ude "sky130_res_models.spice

Doing analysis at TEMP = 27.000000 and TNOM = 27.000000


No. of Data Rows : 1
Reset re-loads circuit *include "sky130_res_models.spice

Circuit: *include "sky130_res_models.spice

Doing analysis at TEMP = 27.000000 and TNOM = 27.000000


No. of Data Rows : 1
Reset re-loads circuit *include "sky130_res_models.spice

Circuit: *include "sky130_res_models.spice

Doing analysis at TEMP = 27.000000 and TNOM = 27.000000


No. of Data Rows : 1
Reset re-loads circuit *include "sky130_res_models.spice

Circuit: *include "sky130_res_models.spice

Doing analysis at TEMP = 27.000000 and TNOM = 27.000000


No. of Data Rows : 1
Reset re-loads circuit *include "sky130_res_models.spice

Circuit: *include "sky130_res_models.spice

Doing analysis at TEMP = 27.000000 and TNOM = 27.000000


No. of Data Rows : 1
Reset re-loads circuit *include "sky130_res_models.spice

Circuit: *include "sky130_res_models.spice

Doing analysis at TEMP = 27.000000 and TNOM = 27.000000


No. of Data Rows : 1
Reset re-loads circuit *include "sky130_res_models.spice

Circuit: *include "sky130_res_models.spice

Doing analysis at TEMP = 27.000000 and TNOM = 27.000000


No. of Data Rows : 1
Reset re-loads circuit *include "sky130_res_models.spice

Circuit: *include "sky130_res_models.spice

Doing analysis at TEMP = 27.000000 and TNOM = 27.000000


No. of Data Rows : 1
Reset re-loads circuit *include "sky130_res_models.spice

Circuit: *include "sky130_res_models.spice

Doing analysis at TEMP = 27.000000 and TNOM = 27.000000


No. of Data Rows : 1
Reset re-loads circuit *include "sky130_res_models.spice

Circuit: *include "sky130_res_models.spice

Doing analysis at TEMP = 27.000000 and TNOM = 27.000000


No. of Data Rows : 1
Reset re-loads circuit *include "sky130_res_models.spice

Circuit: *include "sky130_res_models.spice

Doing analysis at TEMP = 27.000000 and TNOM = 27.000000


No. of Data Rows : 1
Reset re-loads circuit *include "sky130_res_models.spice

Circuit: *include "sky130_res_models.spice

Doing analysis at TEMP = 27.000000 and TNOM = 27.000000


No. of Data Rows : 1
Reset re-loads circuit *include "sky130_res_models.spice

Circuit: *include "sky130_res_models.spice

Doing analysis at TEMP = 27.000000 and TNOM = 27.000000


No. of Data Rows : 1
Reset re-loads circuit *include "sky130_res_models.spice

Circuit: *include "sky130_res_models.spice

Doing analysis at TEMP = 27.000000 and TNOM = 27.000000


No. of Data Rows : 1
Reset re-loads circuit *include "sky130_res_models.spice

Circuit: *include "sky130_res_models.spice

Doing analysis at TEMP = 27.000000 and TNOM = 27.000000


No. of Data Rows : 1
Reset re-loads circuit *include "sky130_res_models.spice

Circuit: *include "sky130_res_models.spice

Doing analysis at TEMP = 27.000000 and TNOM = 27.000000


No. of Data Rows : 1
Reset re-loads circuit *include "sky130_res_models.spice

Circuit: *include "sky130_res_models.spice

Doing analysis at TEMP = 27.000000 and TNOM = 27.000000


No. of Data Rows : 1
Reset re-loads circuit *include "sky130_res_models.spice

Circuit: *include "sky130_res_models.spice

Doing analysis at TEMP = 27.000000 and TNOM = 27.000000


No. of Data Rows : 1
Reset re-loads circuit *include "sky130_res_models.spice

Circuit: *include "sky130_res_models.spice

Doing analysis at TEMP = 27.000000 and TNOM = 27.000000


No. of Data Rows : 1
Reset re-loads circuit *include "sky130_res_models.spice

Circuit: *include "sky130_res_models.spice

Doing analysis at TEMP = 27.000000 and TNOM = 27.000000


No. of Data Rows : 1
Reset re-loads circuit *include "sky130_res_models.spice

Circuit: *include "sky130_res_models.spice

Doing analysis at TEMP = 27.000000 and TNOM = 27.000000


No. of Data Rows : 1
Reset re-loads circuit *include "sky130_res_models.spice

Circuit: *include "sky130_res_models.spice

Doing analysis at TEMP = 27.000000 and TNOM = 27.000000


No. of Data Rows : 1
Reset re-loads circuit *include "sky130_res_models.spice

Circuit: *include "sky130_res_models.spice

Doing analysis at TEMP = 27.000000 and TNOM = 27.000000


No. of Data Rows : 1
ResetUsing SPARSE 1.3 as Direct Linear Solver
Using SPARSE 1.3 as Direct Linear Solver
Using SPARSE 1.3 as Direct Linear Solver
Using SPARSE 1.3 as Direct Linear Solver
Using SPARSE 1.3 as Direct Linear Solver
Using SPARSE 1.3 as Direct Linear Solver
 re-loads circuit *include "sky130_res_models.spice

Circuit: *include "sky130_res_models.spice

Doing analysis at TEMP = 27.000000 and TNOM = 27.000000


No. of Data Rows : 1
Reset re-loads circuit *include "sky130_res_models.spice

Circuit: *include "sky130_res_models.spice

Doing analysis at TEMP = 27.000000 and TNOM = 27.000000


No. of Data Rows : 1
Reset re-loads circuit *include "sky130_res_models.spice

Circuit: *include "sky130_res_models.spice

Doing analysis at TEMP = 27.000000 and TNOM = 27.000000


No. of Data Rows : 1
Reset re-loads circuit *include "sky130_res_models.spice

Circuit: *include "sky130_res_models.spice

Doing analysis at TEMP = 27.000000 and TNOM = 27.000000


No. of Data Rows : 1
Reset re-loads circuit *include "sky130_res_models.spice

Circuit: *include "sky130_res_models.spice

Doing analysis at TEMP = 27.000000 and TNOM = 27.000000


No. of Data Rows : 1
Reset re-loads circuit *include "sky130_res_models.spice

Circuit: *include "sky130_res_models.spice

Doing analysis at TEMP = 27.000000 and TNOM = 27.000000

 Reference value :  0.00000e+00Using SPARSE 1.3 as Direct Linear Solver
Using SPARSE 1.3 as Direct Linear Solver
Using SPARSE 1.3 as Direct Linear Solver
Using SPARSE 1.3 as Direct Linear Solver
Using SPARSE 1.3 as Direct Linear Solver
Using SPARSE 1.3 as Direct Linear Solver
Using SPARSE 1.3 as Direct Linear Solver
Using SPARSE 1.3 as Direct Linear Solver
Using SPARSE 1.3 as Direct Linear Solver
Using SPARSE 1.3 as Direct Linear Solver
Using SPARSE 1.3 as Direct Linear Solver
Using SPARSE 1.3 as Direct Linear Solver
Using SPARSE 1.3 as Direct Linear Solver
Using SPARSE 1.3 as Direct Linear Solver
Using SPARSE 1.3 as Direct Linear Solver
Using SPARSE 1.3 as Direct Linear Solver
Using SPARSE 1.3 as Direct Linear Solver

No. of Data Rows : 1
Reset re-loads circuit *include "sky130_res_models.spice

Circuit: *include "sky130_res_models.spice

Doing analysis at TEMP = 27.000000 and TNOM = 27.000000


No. of Data Rows : 1
Reset re-loads circuit *include "sky130_res_models.spice

Circuit: *include "sky130_res_models.spice

Doing analysis at TEMP = 27.000000 and TNOM = 27.000000


No. of Data Rows : 1
Reset re-loads circuit *include "sky130_res_models.spice

Circuit: *include "sky130_res_models.spice

Doing analysis at TEMP = 27.000000 and TNOM = 27.000000


No. of Data Rows : 1
Reset re-loads circuit *include "sky130_res_models.spice

Circuit: *include "sky130_res_models.spice

Doing analysis at TEMP = 27.000000 and TNOM = 27.000000


No. of Data Rows : 1
Reset re-loads circuit *include "sky130_res_models.spice

Circuit: *include "sky130_res_models.spice

Doing analysis at TEMP = 27.000000 and TNOM = 27.000000


No. of Data Rows : 1
Reset re-loads circuit *include "sky130_res_models.spice

Circuit: *include "sky130_res_models.spice

Doing analysis at TEMP = 27.000000 and TNOM = 27.000000


No. of Data Rows : 1
Reset re-loads circuit *include "sky130_res_models.spice

Circuit: *include "sky130_res_models.spice

Doing analysis at TEMP = 27.000000 and TNOM = 27.000000


No. of Data Rows : 1
Reset re-loads circuit *include "sky130_res_models.spice

Circuit: *include "sky130_res_models.spice

Doing analysis at TEMP = 27.000000 and TNOM = 27.000000


No. of Data Rows : 1
Reset re-loads circuit *include "sky130_res_models.spice

Circuit: *include "sky130_res_models.spice

Doing analysis at TEMP = 27.000000 and TNOM = 27.000000


No. of Data Rows : 1
Reset re-loads circuit *include "sky130_res_models.spice

Circuit: *include "sky130_res_models.spice

Doing analysis at TEMP = 27.000000 and TNOM = 27.000000


No. of Data Rows : 1
Reset re-loads circuit *include "sky130_res_models.spice

Circuit: *include "sky130_res_models.spice

Doing analysis at TEMP = 27.000000 and TNOM = 27.000000


No. of Data Rows : 1
Reset re-loads circuit *include "sky130_res_models.spice

Circuit: *include "sky130_res_models.spice

Doing analysis at TEMP = 27.000000 and TNOM = 27.000000


No. of Data Rows : 1
Reset re-loads circuit *include "sky130_res_models.spice

Circuit: *include "sky130_res_models.spice

Doing analysis at TEMP = 27.000000 and TNOM = 27.000000


No. of Data Rows : 1
Reset re-loads circuit *include "sky130_res_models.spice

Circuit: *include "sky130_res_models.spice

Doing analysis at TEMP = 27.000000 and TNOM = 27.000000


No. of Data Rows : 1
Reset re-loads circuit *include "sky130_res_models.spice

Circuit: *include "sky130_res_models.spice

Doing analysis at TEMP = 27.000000 and TNOM = 27.000000


No. of Data Rows : 1
Reset re-loads circuit *include "sky130_res_models.spice

Circuit: *include "sky130_res_models.spice

Doing analysis at TEMP = 27.000000 and TNOM = 27.000000


No. of Data Rows : 1
Reset re-loads circuit *include "sky130_res_models.spice

Circuit: *include "sky130_res_models.spice

Doing analysis at TEMP = 27.000000 and TNOM = 27.000000


No. of Data Rows : 1
=== Monte Carlo Mismatch (500 runs, TT 27C) ===
mc_vfb_mean_V: 1.22597
mc_vfb_std_mV: 1.56468
mc_vfb_min_V: 1.22041
mc_vfb_max_V: 1.23006
mc_vfb_3sigma_mV: 4.69403
ngspice-42 done
