Using SPARSE 1.3 as Direct Linear Solver
Using SPARSE 1.3 as Direct Linear Solver
Using SPARSE 1.3 as Direct Linear Solver
Using SPARSE 1.3 as Direct Linear Solver
Using SPARSE 1.3 as Direct Linear Solver
Using SPARSE 1.3 as Direct Linear Solver
Using SPARSE 1.3 as Direct Linear Solver
Using SPARSE 1.3 as Direct Linear Solver
Using SPARSE 1.3 as Direct Linear Solver
Using SPARSE 1.3 as Direct Linear Solver
Using SPARSE 1.3 as Direct Linear Solver
Using SPARSE 1.3 as Direct Linear Solver
Using SPARSE 1.3 as Direct Linear Solver
Using SPARSE 1.3 as Direct Linear Solver
Using SPARSE 1.3 as Direct Linear Solver
Using SPARSE 1.3 as Direct Linear Solver

Note: No compatibility mode selected!


Circuit: * tb_fb_mc.spice — monte carlo mismatch analysis (200 runs)

Reset re-loads circuit * tb_fb_mc.spice — monte carlo mismatch analysis (200 runs)

Circuit: * tb_fb_mc.spice — monte carlo mismatch analysis (200 runs)

Doing analysis at TEMP = 27.000000 and TNOM = 27.000000


No. of Data Rows : 1
Reset re-loads circuit * tb_fb_mc.spice — monte carlo mismatch analysis (200 runs)

Circuit: * tb_fb_mc.spice — monte carlo mismatch analysis (200 runs)

Doing analysis at TEMP = 27.000000 and TNOM = 27.000000


No. of Data Rows : 1
Reset re-loads circuit * tb_fb_mc.spice — monte carlo mismatch analysis (200 runs)

Circuit: * tb_fb_mc.spice — monte carlo mismatch analysis (200 runs)

Doing analysis at TEMP = 27.000000 and TNOM = 27.000000


No. of Data Rows : 1
Reset re-loads circuit * tb_fb_mc.spice — monte carlo mismatch analysis (200 runs)

Circuit: * tb_fb_mc.spice — monte carlo mismatch analysis (200 runs)

Doing analysis at TEMP = 27.000000 and TNOM = 27.000000


No. of Data Rows : 1
Reset re-loads circuit * tb_fb_mc.spice — monte carlo mismatch analysis (200 runs)

Circuit: * tb_fb_mc.spice — monte carlo mismatch analysis (200 runs)

Doing analysis at TEMP = 27.000000 and TNOM = 27.000000


No. of Data Rows : 1
Reset re-loads circuit * tb_fb_mc.spice — monte carlo mismatch analysis (200 runs)

Circuit: * tb_fb_mc.spice — monte carlo mismatch analysis (200 runs)

Doing analysis at TEMP = 27.000000 and TNOM = 27.000000


No. of Data Rows : 1
Reset re-loads circuit * tb_fb_mc.spice — monte carlo mismatch analysis (200 runs)

Circuit: * tb_fb_mc.spice — monte carlo mismatch analysis (200 runs)

Doing analysis at TEMP = 27.000000 and TNOM = 27.000000


No. of Data Rows : 1
Reset re-loads circuit * tb_fb_mc.spice — monte carlo mismatch analysis (200 runs)

Circuit: * tb_fb_mc.spice — monte carlo mismatch analysis (200 runs)

Doing analysis at TEMP = 27.000000 and TNOM = 27.000000


No. of Data Rows : 1
Reset re-loads circuit * tb_fb_mc.spice — monte carlo mismatch analysis (200 runs)

Circuit: * tb_fb_mc.spice — monte carlo mismatch analysis (200 runs)

Doing analysis at TEMP = 27.000000 and TNOM = 27.000000


No. of Data Rows : 1
Reset re-loads circuit * tb_fb_mc.spice — monte carlo mismatch analysis (200 runs)

Circuit: * tb_fb_mc.spice — monte carlo mismatch analysis (200 runs)

Doing analysis at TEMP = 27.000000 and TNOM = 27.000000


No. of Data Rows : 1
Reset re-loads circuit * tb_fb_mc.spice — monte carlo mismatch analysis (200 runs)

Circuit: * tb_fb_mc.spice — monte carlo mismatch analysis (200 runs)

Doing analysis at TEMP = 27.000000 and TNOM = 27.000000


No. of Data Rows : 1
Reset re-loads circuit * tb_fb_mc.spice — monte carlo mismatch analysis (200 runs)

Circuit: * tb_fb_mc.spice — monte carlo mismatch analysis (200 runs)

Doing analysis at TEMP = 27.000000 and TNOM = 27.000000


No. of Data Rows : 1
Reset re-loads circuit * tb_fb_mc.spice — monte carlo mismatch analysis (200 runs)

Circuit: * tb_fb_mc.spice — monte carlo mismatch analysis (200 runs)

Doing analysis at TEMP = 27.000000 and TNOM = 27.000000


No. of Data Rows : 1
Reset re-loads circuit * tb_fb_mc.spice — monte carlo mismatch analysis (200 runs)

Circuit: * tb_fb_mc.spice — monte carlo mismatch analysis (200 runs)

Doing analysis at TEMP = 27.000000 and TNOM = 27.000000


No. of Data Rows : 1
Reset re-loads circuit * tb_fb_mc.spice — monte carlo mismatch analysis (200 runs)

Circuit: * tb_fb_mc.spice — monte carlo mismatch analysis (200 runs)

Doing analysis at TEMP = 27.000000 and TNOM = 27.000000


No. of Data Rows : 1
Reset re-loads circuit * tb_fb_mc.spice — monte carlo mismatch analysis (200 runs)

Circuit: * tb_fb_mc.spice — monte carlo mismatch analysis (200 runs)

Doing analysis at TEMP = 27.000000 and TNOM = 27.000000


No. of Data Rows : 1
Reset re-loads circuit * tb_fb_mc.spice — monte carlo mismatch analysis (200 runs)

Circuit: * tb_fb_mc.spice — monte carlo mismatch analysis (200 runs)

Doing analysis at TEMP = 27.00000Using SPARSE 1.3 as Direct Linear Solver
Using SPARSE 1.3 as Direct Linear Solver
Using SPARSE 1.3 as Direct Linear Solver
Using SPARSE 1.3 as Direct Linear Solver
Using SPARSE 1.3 as Direct Linear Solver
Using SPARSE 1.3 as Direct Linear Solver
Using SPARSE 1.3 as Direct Linear Solver
Using SPARSE 1.3 as Direct Linear Solver
Using SPARSE 1.3 as Direct Linear Solver
Using SPARSE 1.3 as Direct Linear Solver
Using SPARSE 1.3 as Direct Linear Solver
Using SPARSE 1.3 as Direct Linear Solver
Using SPARSE 1.3 as Direct Linear Solver
Using SPARSE 1.3 as Direct Linear Solver
Using SPARSE 1.3 as Direct Linear Solver
Using SPARSE 1.3 as Direct Linear Solver
Using SPARSE 1.3 as Direct Linear Solver
Using SPARSE 1.3 as Direct Linear Solver
0 and TNOM = 27.000000


No. of Data Rows : 1
Reset re-loads circuit * tb_fb_mc.spice — monte carlo mismatch analysis (200 runs)

Circuit: * tb_fb_mc.spice — monte carlo mismatch analysis (200 runs)

Doing analysis at TEMP = 27.000000 and TNOM = 27.000000


No. of Data Rows : 1
Reset re-loads circuit * tb_fb_mc.spice — monte carlo mismatch analysis (200 runs)

Circuit: * tb_fb_mc.spice — monte carlo mismatch analysis (200 runs)

Doing analysis at TEMP = 27.000000 and TNOM = 27.000000


No. of Data Rows : 1
Reset re-loads circuit * tb_fb_mc.spice — monte carlo mismatch analysis (200 runs)

Circuit: * tb_fb_mc.spice — monte carlo mismatch analysis (200 runs)

Doing analysis at TEMP = 27.000000 and TNOM = 27.000000


No. of Data Rows : 1
Reset re-loads circuit * tb_fb_mc.spice — monte carlo mismatch analysis (200 runs)

Circuit: * tb_fb_mc.spice — monte carlo mismatch analysis (200 runs)

Doing analysis at TEMP = 27.000000 and TNOM = 27.000000


No. of Data Rows : 1
Reset re-loads circuit * tb_fb_mc.spice — monte carlo mismatch analysis (200 runs)

Circuit: * tb_fb_mc.spice — monte carlo mismatch analysis (200 runs)

Doing analysis at TEMP = 27.000000 and TNOM = 27.000000


No. of Data Rows : 1
Reset re-loads circuit * tb_fb_mc.spice — monte carlo mismatch analysis (200 runs)

Circuit: * tb_fb_mc.spice — monte carlo mismatch analysis (200 runs)

Doing analysis at TEMP = 27.000000 and TNOM = 27.000000


No. of Data Rows : 1
Reset re-loads circuit * tb_fb_mc.spice — monte carlo mismatch analysis (200 runs)

Circuit: * tb_fb_mc.spice — monte carlo mismatch analysis (200 runs)

Doing analysis at TEMP = 27.000000 and TNOM = 27.000000


No. of Data Rows : 1
Reset re-loads circuit * tb_fb_mc.spice — monte carlo mismatch analysis (200 runs)

Circuit: * tb_fb_mc.spice — monte carlo mismatch analysis (200 runs)

Doing analysis at TEMP = 27.000000 and TNOM = 27.000000


No. of Data Rows : 1
Reset re-loads circuit * tb_fb_mc.spice — monte carlo mismatch analysis (200 runs)

Circuit: * tb_fb_mc.spice — monte carlo mismatch analysis (200 runs)

Doing analysis at TEMP = 27.000000 and TNOM = 27.000000


No. of Data Rows : 1
Reset re-loads circuit * tb_fb_mc.spice — monte carlo mismatch analysis (200 runs)

Circuit: * tb_fb_mc.spice — monte carlo mismatch analysis (200 runs)

Doing analysis at TEMP = 27.000000 and TNOM = 27.000000


No. of Data Rows : 1
Reset re-loads circuit * tb_fb_mc.spice — monte carlo mismatch analysis (200 runs)

Circuit: * tb_fb_mc.spice — monte carlo mismatch analysis (200 runs)

Doing analysis at TEMP = 27.000000 and TNOM = 27.000000


No. of Data Rows : 1
Reset re-loads circuit * tb_fb_mc.spice — monte carlo mismatch analysis (200 runs)

Circuit: * tb_fb_mc.spice — monte carlo mismatch analysis (200 runs)

Doing analysis at TEMP = 27.000000 and TNOM = 27.000000


No. of Data Rows : 1
Reset re-loads circuit * tb_fb_mc.spice — monte carlo mismatch analysis (200 runs)

Circuit: * tb_fb_mc.spice — monte carlo mismatch analysis (200 runs)

Doing analysis at TEMP = 27.000000 and TNOM = 27.000000


No. of Data Rows : 1
Reset re-loads circuit * tb_fb_mc.spice — monte carlo mismatch analysis (200 runs)

Circuit: * tb_fb_mc.spice — monte carlo mismatch analysis (200 runs)

Doing analysis at TEMP = 27.000000 and TNOM = 27.000000


No. of Data Rows : 1
Reset re-loads circuit * tb_fb_mc.spice — monte carlo mismatch analysis (200 runs)

Circuit: * tb_fb_mc.spice — monte carlo mismatch analysis (200 runs)

Doing analysis at TEMP = 27.000000 and TNOM = 27.000000


No. of Data Rows : 1
Reset re-loads circuit * tb_fb_mc.spice — monte carlo mismatch analysis (200 runs)

Circuit: * tb_fb_mc.spice — monte carlo mismatch analysis (200 runs)

Doing analysis at TEMP = 27.000000 and TNOM = 27.000000


No. of Data Rows : 1
Reset re-loads circuit * tb_fb_mc.spice — monte carlo mismatch analysis (200 runs)

Circuit: * tb_fb_mc.spice — monte carlo mismatch analysis (200 runs)

Doing analysis at TEMP = 27.000000 and TNOM = 27.000000


No. of Data Rows : 1
Reset re-loads circuiUsing SPARSE 1.3 as Direct Linear Solver
Using SPARSE 1.3 as Direct Linear Solver
Using SPARSE 1.3 as Direct Linear Solver
Using SPARSE 1.3 as Direct Linear Solver
Using SPARSE 1.3 as Direct Linear Solver
Using SPARSE 1.3 as Direct Linear Solver
Using SPARSE 1.3 as Direct Linear Solver
Using SPARSE 1.3 as Direct Linear Solver
Using SPARSE 1.3 as Direct Linear Solver
Using SPARSE 1.3 as Direct Linear Solver
Using SPARSE 1.3 as Direct Linear Solver
Using SPARSE 1.3 as Direct Linear Solver
Using SPARSE 1.3 as Direct Linear Solver
Using SPARSE 1.3 as Direct Linear Solver
Using SPARSE 1.3 as Direct Linear Solver
Using SPARSE 1.3 as Direct Linear Solver
Using SPARSE 1.3 as Direct Linear Solver
t * tb_fb_mc.spice — monte carlo mismatch analysis (200 runs)

Circuit: * tb_fb_mc.spice — monte carlo mismatch analysis (200 runs)

Doing analysis at TEMP = 27.000000 and TNOM = 27.000000


No. of Data Rows : 1
Reset re-loads circuit * tb_fb_mc.spice — monte carlo mismatch analysis (200 runs)

Circuit: * tb_fb_mc.spice — monte carlo mismatch analysis (200 runs)

Doing analysis at TEMP = 27.000000 and TNOM = 27.000000


No. of Data Rows : 1
Reset re-loads circuit * tb_fb_mc.spice — monte carlo mismatch analysis (200 runs)

Circuit: * tb_fb_mc.spice — monte carlo mismatch analysis (200 runs)

Doing analysis at TEMP = 27.000000 and TNOM = 27.000000


No. of Data Rows : 1
Reset re-loads circuit * tb_fb_mc.spice — monte carlo mismatch analysis (200 runs)

Circuit: * tb_fb_mc.spice — monte carlo mismatch analysis (200 runs)

Doing analysis at TEMP = 27.000000 and TNOM = 27.000000


No. of Data Rows : 1
Reset re-loads circuit * tb_fb_mc.spice — monte carlo mismatch analysis (200 runs)

Circuit: * tb_fb_mc.spice — monte carlo mismatch analysis (200 runs)

Doing analysis at TEMP = 27.000000 and TNOM = 27.000000


No. of Data Rows : 1
Reset re-loads circuit * tb_fb_mc.spice — monte carlo mismatch analysis (200 runs)

Circuit: * tb_fb_mc.spice — monte carlo mismatch analysis (200 runs)

Doing analysis at TEMP = 27.000000 and TNOM = 27.000000


No. of Data Rows : 1
Reset re-loads circuit * tb_fb_mc.spice — monte carlo mismatch analysis (200 runs)

Circuit: * tb_fb_mc.spice — monte carlo mismatch analysis (200 runs)

Doing analysis at TEMP = 27.000000 and TNOM = 27.000000


No. of Data Rows : 1
Reset re-loads circuit * tb_fb_mc.spice — monte carlo mismatch analysis (200 runs)

Circuit: * tb_fb_mc.spice — monte carlo mismatch analysis (200 runs)

Doing analysis at TEMP = 27.000000 and TNOM = 27.000000


No. of Data Rows : 1
Reset re-loads circuit * tb_fb_mc.spice — monte carlo mismatch analysis (200 runs)

Circuit: * tb_fb_mc.spice — monte carlo mismatch analysis (200 runs)

Doing analysis at TEMP = 27.000000 and TNOM = 27.000000


No. of Data Rows : 1
Reset re-loads circuit * tb_fb_mc.spice — monte carlo mismatch analysis (200 runs)

Circuit: * tb_fb_mc.spice — monte carlo mismatch analysis (200 runs)

Doing analysis at TEMP = 27.000000 and TNOM = 27.000000


No. of Data Rows : 1
Reset re-loads circuit * tb_fb_mc.spice — monte carlo mismatch analysis (200 runs)

Circuit: * tb_fb_mc.spice — monte carlo mismatch analysis (200 runs)

Doing analysis at TEMP = 27.000000 and TNOM = 27.000000


No. of Data Rows : 1
Reset re-loads circuit * tb_fb_mc.spice — monte carlo mismatch analysis (200 runs)

Circuit: * tb_fb_mc.spice — monte carlo mismatch analysis (200 runs)

Doing analysis at TEMP = 27.000000 and TNOM = 27.000000


No. of Data Rows : 1
Reset re-loads circuit * tb_fb_mc.spice — monte carlo mismatch analysis (200 runs)

Circuit: * tb_fb_mc.spice — monte carlo mismatch analysis (200 runs)

Doing analysis at TEMP = 27.000000 and TNOM = 27.000000


No. of Data Rows : 1
Reset re-loads circuit * tb_fb_mc.spice — monte carlo mismatch analysis (200 runs)

Circuit: * tb_fb_mc.spice — monte carlo mismatch analysis (200 runs)

Doing analysis at TEMP = 27.000000 and TNOM = 27.000000


No. of Data Rows : 1
Reset re-loads circuit * tb_fb_mc.spice — monte carlo mismatch analysis (200 runs)

Circuit: * tb_fb_mc.spice — monte carlo mismatch analysis (200 runs)

Doing analysis at TEMP = 27.000000 and TNOM = 27.000000


No. of Data Rows : 1
Reset re-loads circuit * tb_fb_mc.spice — monte carlo mismatch analysis (200 runs)

Circuit: * tb_fb_mc.spice — monte carlo mismatch analysis (200 runs)

Doing analysis at TEMP = 27.000000 and TNOM = 27.000000


No. of Data Rows : 1
Reset re-loads circuit * tb_fb_mc.spice — monte carlo mismatch analysis (200 runs)

Circuit: * tb_fb_mc.spice — monte carlo mismatch analysis (200 runs)

Doing analysis at TEMP = 27.000000 and TNOM = 27.000000


No. of Data Rows : 1
Reset re-loads circuit * tb_fb_mc.spice — monte carlo mismatch analysis (200 runs)

CiUsing SPARSE 1.3 as Direct Linear Solver
Using SPARSE 1.3 as Direct Linear Solver
Using SPARSE 1.3 as Direct Linear Solver
Using SPARSE 1.3 as Direct Linear Solver
Using SPARSE 1.3 as Direct Linear Solver
Using SPARSE 1.3 as Direct Linear Solver
Using SPARSE 1.3 as Direct Linear Solver
Using SPARSE 1.3 as Direct Linear Solver
Using SPARSE 1.3 as Direct Linear Solver
Using SPARSE 1.3 as Direct Linear Solver
Using SPARSE 1.3 as Direct Linear Solver
Using SPARSE 1.3 as Direct Linear Solver
Using SPARSE 1.3 as Direct Linear Solver
Using SPARSE 1.3 as Direct Linear Solver
Using SPARSE 1.3 as Direct Linear Solver
Using SPARSE 1.3 as Direct Linear Solver
Using SPARSE 1.3 as Direct Linear Solver
rcuit: * tb_fb_mc.spice — monte carlo mismatch analysis (200 runs)

Doing analysis at TEMP = 27.000000 and TNOM = 27.000000


No. of Data Rows : 1
Reset re-loads circuit * tb_fb_mc.spice — monte carlo mismatch analysis (200 runs)

Circuit: * tb_fb_mc.spice — monte carlo mismatch analysis (200 runs)

Doing analysis at TEMP = 27.000000 and TNOM = 27.000000


No. of Data Rows : 1
Reset re-loads circuit * tb_fb_mc.spice — monte carlo mismatch analysis (200 runs)

Circuit: * tb_fb_mc.spice — monte carlo mismatch analysis (200 runs)

Doing analysis at TEMP = 27.000000 and TNOM = 27.000000


No. of Data Rows : 1
Reset re-loads circuit * tb_fb_mc.spice — monte carlo mismatch analysis (200 runs)

Circuit: * tb_fb_mc.spice — monte carlo mismatch analysis (200 runs)

Doing analysis at TEMP = 27.000000 and TNOM = 27.000000


No. of Data Rows : 1
Reset re-loads circuit * tb_fb_mc.spice — monte carlo mismatch analysis (200 runs)

Circuit: * tb_fb_mc.spice — monte carlo mismatch analysis (200 runs)

Doing analysis at TEMP = 27.000000 and TNOM = 27.000000


No. of Data Rows : 1
Reset re-loads circuit * tb_fb_mc.spice — monte carlo mismatch analysis (200 runs)

Circuit: * tb_fb_mc.spice — monte carlo mismatch analysis (200 runs)

Doing analysis at TEMP = 27.000000 and TNOM = 27.000000


No. of Data Rows : 1
Reset re-loads circuit * tb_fb_mc.spice — monte carlo mismatch analysis (200 runs)

Circuit: * tb_fb_mc.spice — monte carlo mismatch analysis (200 runs)

Doing analysis at TEMP = 27.000000 and TNOM = 27.000000


No. of Data Rows : 1
Reset re-loads circuit * tb_fb_mc.spice — monte carlo mismatch analysis (200 runs)

Circuit: * tb_fb_mc.spice — monte carlo mismatch analysis (200 runs)

Doing analysis at TEMP = 27.000000 and TNOM = 27.000000


No. of Data Rows : 1
Reset re-loads circuit * tb_fb_mc.spice — monte carlo mismatch analysis (200 runs)

Circuit: * tb_fb_mc.spice — monte carlo mismatch analysis (200 runs)

Doing analysis at TEMP = 27.000000 and TNOM = 27.000000


No. of Data Rows : 1
Reset re-loads circuit * tb_fb_mc.spice — monte carlo mismatch analysis (200 runs)

Circuit: * tb_fb_mc.spice — monte carlo mismatch analysis (200 runs)

Doing analysis at TEMP = 27.000000 and TNOM = 27.000000


No. of Data Rows : 1
Reset re-loads circuit * tb_fb_mc.spice — monte carlo mismatch analysis (200 runs)

Circuit: * tb_fb_mc.spice — monte carlo mismatch analysis (200 runs)

Doing analysis at TEMP = 27.000000 and TNOM = 27.000000


No. of Data Rows : 1
Reset re-loads circuit * tb_fb_mc.spice — monte carlo mismatch analysis (200 runs)

Circuit: * tb_fb_mc.spice — monte carlo mismatch analysis (200 runs)

Doing analysis at TEMP = 27.000000 and TNOM = 27.000000


No. of Data Rows : 1
Reset re-loads circuit * tb_fb_mc.spice — monte carlo mismatch analysis (200 runs)

Circuit: * tb_fb_mc.spice — monte carlo mismatch analysis (200 runs)

Doing analysis at TEMP = 27.000000 and TNOM = 27.000000


No. of Data Rows : 1
Reset re-loads circuit * tb_fb_mc.spice — monte carlo mismatch analysis (200 runs)

Circuit: * tb_fb_mc.spice — monte carlo mismatch analysis (200 runs)

Doing analysis at TEMP = 27.000000 and TNOM = 27.000000


No. of Data Rows : 1
Reset re-loads circuit * tb_fb_mc.spice — monte carlo mismatch analysis (200 runs)

Circuit: * tb_fb_mc.spice — monte carlo mismatch analysis (200 runs)

Doing analysis at TEMP = 27.000000 and TNOM = 27.000000


No. of Data Rows : 1
Reset re-loads circuit * tb_fb_mc.spice — monte carlo mismatch analysis (200 runs)

Circuit: * tb_fb_mc.spice — monte carlo mismatch analysis (200 runs)

Doing analysis at TEMP = 27.000000 and TNOM = 27.000000


No. of Data Rows : 1
Reset re-loads circuit * tb_fb_mc.spice — monte carlo mismatch analysis (200 runs)

Circuit: * tb_fb_mc.spice — monte carlo mismatch analysis (200 runs)

Doing analysis at TEMP = 27.000000 and TNOM = 27.000000


No. of Data Rows : 1
Reset re-loads circuit * tb_fb_mc.spice — monte carlo mismatch analysis (200 runs)

Circuit: * tb_fb_mc.spice — monte carlo mismatch analysis (200 runsUsing SPARSE 1.3 as Direct Linear Solver
Using SPARSE 1.3 as Direct Linear Solver
Using SPARSE 1.3 as Direct Linear Solver
Using SPARSE 1.3 as Direct Linear Solver
Using SPARSE 1.3 as Direct Linear Solver
Using SPARSE 1.3 as Direct Linear Solver
Using SPARSE 1.3 as Direct Linear Solver
Using SPARSE 1.3 as Direct Linear Solver
Using SPARSE 1.3 as Direct Linear Solver
Using SPARSE 1.3 as Direct Linear Solver
Using SPARSE 1.3 as Direct Linear Solver
Using SPARSE 1.3 as Direct Linear Solver
Using SPARSE 1.3 as Direct Linear Solver
Using SPARSE 1.3 as Direct Linear Solver
Using SPARSE 1.3 as Direct Linear Solver
Using SPARSE 1.3 as Direct Linear Solver
Using SPARSE 1.3 as Direct Linear Solver
Using SPARSE 1.3 as Direct Linear Solver
)

Doing analysis at TEMP = 27.000000 and TNOM = 27.000000


No. of Data Rows : 1
Reset re-loads circuit * tb_fb_mc.spice — monte carlo mismatch analysis (200 runs)

Circuit: * tb_fb_mc.spice — monte carlo mismatch analysis (200 runs)

Doing analysis at TEMP = 27.000000 and TNOM = 27.000000


No. of Data Rows : 1
Reset re-loads circuit * tb_fb_mc.spice — monte carlo mismatch analysis (200 runs)

Circuit: * tb_fb_mc.spice — monte carlo mismatch analysis (200 runs)

Doing analysis at TEMP = 27.000000 and TNOM = 27.000000


No. of Data Rows : 1
Reset re-loads circuit * tb_fb_mc.spice — monte carlo mismatch analysis (200 runs)

Circuit: * tb_fb_mc.spice — monte carlo mismatch analysis (200 runs)

Doing analysis at TEMP = 27.000000 and TNOM = 27.000000


No. of Data Rows : 1
Reset re-loads circuit * tb_fb_mc.spice — monte carlo mismatch analysis (200 runs)

Circuit: * tb_fb_mc.spice — monte carlo mismatch analysis (200 runs)

Doing analysis at TEMP = 27.000000 and TNOM = 27.000000


No. of Data Rows : 1
Reset re-loads circuit * tb_fb_mc.spice — monte carlo mismatch analysis (200 runs)

Circuit: * tb_fb_mc.spice — monte carlo mismatch analysis (200 runs)

Doing analysis at TEMP = 27.000000 and TNOM = 27.000000


No. of Data Rows : 1
Reset re-loads circuit * tb_fb_mc.spice — monte carlo mismatch analysis (200 runs)

Circuit: * tb_fb_mc.spice — monte carlo mismatch analysis (200 runs)

Doing analysis at TEMP = 27.000000 and TNOM = 27.000000


No. of Data Rows : 1
Reset re-loads circuit * tb_fb_mc.spice — monte carlo mismatch analysis (200 runs)

Circuit: * tb_fb_mc.spice — monte carlo mismatch analysis (200 runs)

Doing analysis at TEMP = 27.000000 and TNOM = 27.000000


No. of Data Rows : 1
Reset re-loads circuit * tb_fb_mc.spice — monte carlo mismatch analysis (200 runs)

Circuit: * tb_fb_mc.spice — monte carlo mismatch analysis (200 runs)

Doing analysis at TEMP = 27.000000 and TNOM = 27.000000


No. of Data Rows : 1
Reset re-loads circuit * tb_fb_mc.spice — monte carlo mismatch analysis (200 runs)

Circuit: * tb_fb_mc.spice — monte carlo mismatch analysis (200 runs)

Doing analysis at TEMP = 27.000000 and TNOM = 27.000000


No. of Data Rows : 1
Reset re-loads circuit * tb_fb_mc.spice — monte carlo mismatch analysis (200 runs)

Circuit: * tb_fb_mc.spice — monte carlo mismatch analysis (200 runs)

Doing analysis at TEMP = 27.000000 and TNOM = 27.000000


No. of Data Rows : 1
Reset re-loads circuit * tb_fb_mc.spice — monte carlo mismatch analysis (200 runs)

Circuit: * tb_fb_mc.spice — monte carlo mismatch analysis (200 runs)

Doing analysis at TEMP = 27.000000 and TNOM = 27.000000


No. of Data Rows : 1
Reset re-loads circuit * tb_fb_mc.spice — monte carlo mismatch analysis (200 runs)

Circuit: * tb_fb_mc.spice — monte carlo mismatch analysis (200 runs)

Doing analysis at TEMP = 27.000000 and TNOM = 27.000000


No. of Data Rows : 1
Reset re-loads circuit * tb_fb_mc.spice — monte carlo mismatch analysis (200 runs)

Circuit: * tb_fb_mc.spice — monte carlo mismatch analysis (200 runs)

Doing analysis at TEMP = 27.000000 and TNOM = 27.000000


No. of Data Rows : 1
Reset re-loads circuit * tb_fb_mc.spice — monte carlo mismatch analysis (200 runs)

Circuit: * tb_fb_mc.spice — monte carlo mismatch analysis (200 runs)

Doing analysis at TEMP = 27.000000 and TNOM = 27.000000


No. of Data Rows : 1
Reset re-loads circuit * tb_fb_mc.spice — monte carlo mismatch analysis (200 runs)

Circuit: * tb_fb_mc.spice — monte carlo mismatch analysis (200 runs)

Doing analysis at TEMP = 27.000000 and TNOM = 27.000000


No. of Data Rows : 1
Reset re-loads circuit * tb_fb_mc.spice — monte carlo mismatch analysis (200 runs)

Circuit: * tb_fb_mc.spice — monte carlo mismatch analysis (200 runs)

Doing analysis at TEMP = 27.000000 and TNOM = 27.000000


No. of Data Rows : 1
Reset re-loads circuit * tb_fb_mc.spice — monte carlo mismatch analysis (200 runs)

Circuit: * tb_fb_mc.spice — monte carlo mismatch analysis (200 runs)

Doing analysis at TEMP = 27.000000 and TNOM = 27.000000


No. ofUsing SPARSE 1.3 as Direct Linear Solver
Using SPARSE 1.3 as Direct Linear Solver
Using SPARSE 1.3 as Direct Linear Solver
Using SPARSE 1.3 as Direct Linear Solver
Using SPARSE 1.3 as Direct Linear Solver
Using SPARSE 1.3 as Direct Linear Solver
Using SPARSE 1.3 as Direct Linear Solver
Using SPARSE 1.3 as Direct Linear Solver
Using SPARSE 1.3 as Direct Linear Solver
Using SPARSE 1.3 as Direct Linear Solver
Using SPARSE 1.3 as Direct Linear Solver
Using SPARSE 1.3 as Direct Linear Solver
Using SPARSE 1.3 as Direct Linear Solver
Using SPARSE 1.3 as Direct Linear Solver
Using SPARSE 1.3 as Direct Linear Solver
Using SPARSE 1.3 as Direct Linear Solver
Using SPARSE 1.3 as Direct Linear Solver
 Data Rows : 1
Reset re-loads circuit * tb_fb_mc.spice — monte carlo mismatch analysis (200 runs)

Circuit: * tb_fb_mc.spice — monte carlo mismatch analysis (200 runs)

Doing analysis at TEMP = 27.000000 and TNOM = 27.000000


No. of Data Rows : 1
Reset re-loads circuit * tb_fb_mc.spice — monte carlo mismatch analysis (200 runs)

Circuit: * tb_fb_mc.spice — monte carlo mismatch analysis (200 runs)

Doing analysis at TEMP = 27.000000 and TNOM = 27.000000


No. of Data Rows : 1
Reset re-loads circuit * tb_fb_mc.spice — monte carlo mismatch analysis (200 runs)

Circuit: * tb_fb_mc.spice — monte carlo mismatch analysis (200 runs)

Doing analysis at TEMP = 27.000000 and TNOM = 27.000000


No. of Data Rows : 1
Reset re-loads circuit * tb_fb_mc.spice — monte carlo mismatch analysis (200 runs)

Circuit: * tb_fb_mc.spice — monte carlo mismatch analysis (200 runs)

Doing analysis at TEMP = 27.000000 and TNOM = 27.000000


No. of Data Rows : 1
Reset re-loads circuit * tb_fb_mc.spice — monte carlo mismatch analysis (200 runs)

Circuit: * tb_fb_mc.spice — monte carlo mismatch analysis (200 runs)

Doing analysis at TEMP = 27.000000 and TNOM = 27.000000


No. of Data Rows : 1
Reset re-loads circuit * tb_fb_mc.spice — monte carlo mismatch analysis (200 runs)

Circuit: * tb_fb_mc.spice — monte carlo mismatch analysis (200 runs)

Doing analysis at TEMP = 27.000000 and TNOM = 27.000000


No. of Data Rows : 1
Reset re-loads circuit * tb_fb_mc.spice — monte carlo mismatch analysis (200 runs)

Circuit: * tb_fb_mc.spice — monte carlo mismatch analysis (200 runs)

Doing analysis at TEMP = 27.000000 and TNOM = 27.000000


No. of Data Rows : 1
Reset re-loads circuit * tb_fb_mc.spice — monte carlo mismatch analysis (200 runs)

Circuit: * tb_fb_mc.spice — monte carlo mismatch analysis (200 runs)

Doing analysis at TEMP = 27.000000 and TNOM = 27.000000


No. of Data Rows : 1
Reset re-loads circuit * tb_fb_mc.spice — monte carlo mismatch analysis (200 runs)

Circuit: * tb_fb_mc.spice — monte carlo mismatch analysis (200 runs)

Doing analysis at TEMP = 27.000000 and TNOM = 27.000000


No. of Data Rows : 1
Reset re-loads circuit * tb_fb_mc.spice — monte carlo mismatch analysis (200 runs)

Circuit: * tb_fb_mc.spice — monte carlo mismatch analysis (200 runs)

Doing analysis at TEMP = 27.000000 and TNOM = 27.000000


No. of Data Rows : 1
Reset re-loads circuit * tb_fb_mc.spice — monte carlo mismatch analysis (200 runs)

Circuit: * tb_fb_mc.spice — monte carlo mismatch analysis (200 runs)

Doing analysis at TEMP = 27.000000 and TNOM = 27.000000


No. of Data Rows : 1
Reset re-loads circuit * tb_fb_mc.spice — monte carlo mismatch analysis (200 runs)

Circuit: * tb_fb_mc.spice — monte carlo mismatch analysis (200 runs)

Doing analysis at TEMP = 27.000000 and TNOM = 27.000000


No. of Data Rows : 1
Reset re-loads circuit * tb_fb_mc.spice — monte carlo mismatch analysis (200 runs)

Circuit: * tb_fb_mc.spice — monte carlo mismatch analysis (200 runs)

Doing analysis at TEMP = 27.000000 and TNOM = 27.000000


No. of Data Rows : 1
Reset re-loads circuit * tb_fb_mc.spice — monte carlo mismatch analysis (200 runs)

Circuit: * tb_fb_mc.spice — monte carlo mismatch analysis (200 runs)

Doing analysis at TEMP = 27.000000 and TNOM = 27.000000


No. of Data Rows : 1
Reset re-loads circuit * tb_fb_mc.spice — monte carlo mismatch analysis (200 runs)

Circuit: * tb_fb_mc.spice — monte carlo mismatch analysis (200 runs)

Doing analysis at TEMP = 27.000000 and TNOM = 27.000000


No. of Data Rows : 1
Reset re-loads circuit * tb_fb_mc.spice — monte carlo mismatch analysis (200 runs)

Circuit: * tb_fb_mc.spice — monte carlo mismatch analysis (200 runs)

Doing analysis at TEMP = 27.000000 and TNOM = 27.000000


No. of Data Rows : 1
Reset re-loads circuit * tb_fb_mc.spice — monte carlo mismatch analysis (200 runs)

Circuit: * tb_fb_mc.spice — monte carlo mismatch analysis (200 runs)

Doing analysis at TEMP = 27.000000 and TNOM = 27.000000


No. of Data Rows : 1
Reset re-loads circuit * tb_fb_mc.spice — monte caUsing SPARSE 1.3 as Direct Linear Solver
Using SPARSE 1.3 as Direct Linear Solver
Using SPARSE 1.3 as Direct Linear Solver
Using SPARSE 1.3 as Direct Linear Solver
Using SPARSE 1.3 as Direct Linear Solver
Using SPARSE 1.3 as Direct Linear Solver
Using SPARSE 1.3 as Direct Linear Solver
Using SPARSE 1.3 as Direct Linear Solver
Using SPARSE 1.3 as Direct Linear Solver
Using SPARSE 1.3 as Direct Linear Solver
Using SPARSE 1.3 as Direct Linear Solver
Using SPARSE 1.3 as Direct Linear Solver
Using SPARSE 1.3 as Direct Linear Solver
Using SPARSE 1.3 as Direct Linear Solver
Using SPARSE 1.3 as Direct Linear Solver
Using SPARSE 1.3 as Direct Linear Solver
Using SPARSE 1.3 as Direct Linear Solver
rlo mismatch analysis (200 runs)

Circuit: * tb_fb_mc.spice — monte carlo mismatch analysis (200 runs)

Doing analysis at TEMP = 27.000000 and TNOM = 27.000000


No. of Data Rows : 1
Reset re-loads circuit * tb_fb_mc.spice — monte carlo mismatch analysis (200 runs)

Circuit: * tb_fb_mc.spice — monte carlo mismatch analysis (200 runs)

Doing analysis at TEMP = 27.000000 and TNOM = 27.000000


No. of Data Rows : 1
Reset re-loads circuit * tb_fb_mc.spice — monte carlo mismatch analysis (200 runs)

Circuit: * tb_fb_mc.spice — monte carlo mismatch analysis (200 runs)

Doing analysis at TEMP = 27.000000 and TNOM = 27.000000


No. of Data Rows : 1
Reset re-loads circuit * tb_fb_mc.spice — monte carlo mismatch analysis (200 runs)

Circuit: * tb_fb_mc.spice — monte carlo mismatch analysis (200 runs)

Doing analysis at TEMP = 27.000000 and TNOM = 27.000000


No. of Data Rows : 1
Reset re-loads circuit * tb_fb_mc.spice — monte carlo mismatch analysis (200 runs)

Circuit: * tb_fb_mc.spice — monte carlo mismatch analysis (200 runs)

Doing analysis at TEMP = 27.000000 and TNOM = 27.000000


No. of Data Rows : 1
Reset re-loads circuit * tb_fb_mc.spice — monte carlo mismatch analysis (200 runs)

Circuit: * tb_fb_mc.spice — monte carlo mismatch analysis (200 runs)

Doing analysis at TEMP = 27.000000 and TNOM = 27.000000


No. of Data Rows : 1
Reset re-loads circuit * tb_fb_mc.spice — monte carlo mismatch analysis (200 runs)

Circuit: * tb_fb_mc.spice — monte carlo mismatch analysis (200 runs)

Doing analysis at TEMP = 27.000000 and TNOM = 27.000000


No. of Data Rows : 1
Reset re-loads circuit * tb_fb_mc.spice — monte carlo mismatch analysis (200 runs)

Circuit: * tb_fb_mc.spice — monte carlo mismatch analysis (200 runs)

Doing analysis at TEMP = 27.000000 and TNOM = 27.000000


No. of Data Rows : 1
Reset re-loads circuit * tb_fb_mc.spice — monte carlo mismatch analysis (200 runs)

Circuit: * tb_fb_mc.spice — monte carlo mismatch analysis (200 runs)

Doing analysis at TEMP = 27.000000 and TNOM = 27.000000


No. of Data Rows : 1
Reset re-loads circuit * tb_fb_mc.spice — monte carlo mismatch analysis (200 runs)

Circuit: * tb_fb_mc.spice — monte carlo mismatch analysis (200 runs)

Doing analysis at TEMP = 27.000000 and TNOM = 27.000000


No. of Data Rows : 1
Reset re-loads circuit * tb_fb_mc.spice — monte carlo mismatch analysis (200 runs)

Circuit: * tb_fb_mc.spice — monte carlo mismatch analysis (200 runs)

Doing analysis at TEMP = 27.000000 and TNOM = 27.000000


No. of Data Rows : 1
Reset re-loads circuit * tb_fb_mc.spice — monte carlo mismatch analysis (200 runs)

Circuit: * tb_fb_mc.spice — monte carlo mismatch analysis (200 runs)

Doing analysis at TEMP = 27.000000 and TNOM = 27.000000


No. of Data Rows : 1
Reset re-loads circuit * tb_fb_mc.spice — monte carlo mismatch analysis (200 runs)

Circuit: * tb_fb_mc.spice — monte carlo mismatch analysis (200 runs)

Doing analysis at TEMP = 27.000000 and TNOM = 27.000000


No. of Data Rows : 1
Reset re-loads circuit * tb_fb_mc.spice — monte carlo mismatch analysis (200 runs)

Circuit: * tb_fb_mc.spice — monte carlo mismatch analysis (200 runs)

Doing analysis at TEMP = 27.000000 and TNOM = 27.000000


No. of Data Rows : 1
Reset re-loads circuit * tb_fb_mc.spice — monte carlo mismatch analysis (200 runs)

Circuit: * tb_fb_mc.spice — monte carlo mismatch analysis (200 runs)

Doing analysis at TEMP = 27.000000 and TNOM = 27.000000


No. of Data Rows : 1
Reset re-loads circuit * tb_fb_mc.spice — monte carlo mismatch analysis (200 runs)

Circuit: * tb_fb_mc.spice — monte carlo mismatch analysis (200 runs)

Doing analysis at TEMP = 27.000000 and TNOM = 27.000000


No. of Data Rows : 1
Reset re-loads circuit * tb_fb_mc.spice — monte carlo mismatch analysis (200 runs)

Circuit: * tb_fb_mc.spice — monte carlo mismatch analysis (200 runs)

Doing analysis at TEMP = 27.000000 and TNOM = 27.000000


No. of Data Rows : 1
Reset re-loads circuit * tb_fb_mc.spice — monte carlo mismatch analysis (200 runs)

Circuit: * tb_fb_mc.spice — monUsing SPARSE 1.3 as Direct Linear Solver
Using SPARSE 1.3 as Direct Linear Solver
Using SPARSE 1.3 as Direct Linear Solver
Using SPARSE 1.3 as Direct Linear Solver
Using SPARSE 1.3 as Direct Linear Solver
Using SPARSE 1.3 as Direct Linear Solver
Using SPARSE 1.3 as Direct Linear Solver
Using SPARSE 1.3 as Direct Linear Solver
Using SPARSE 1.3 as Direct Linear Solver
Using SPARSE 1.3 as Direct Linear Solver
Using SPARSE 1.3 as Direct Linear Solver
Using SPARSE 1.3 as Direct Linear Solver
Using SPARSE 1.3 as Direct Linear Solver
Using SPARSE 1.3 as Direct Linear Solver
Using SPARSE 1.3 as Direct Linear Solver
Using SPARSE 1.3 as Direct Linear Solver
Using SPARSE 1.3 as Direct Linear Solver
te carlo mismatch analysis (200 runs)

Doing analysis at TEMP = 27.000000 and TNOM = 27.000000


No. of Data Rows : 1
Reset re-loads circuit * tb_fb_mc.spice — monte carlo mismatch analysis (200 runs)

Circuit: * tb_fb_mc.spice — monte carlo mismatch analysis (200 runs)

Doing analysis at TEMP = 27.000000 and TNOM = 27.000000


No. of Data Rows : 1
Reset re-loads circuit * tb_fb_mc.spice — monte carlo mismatch analysis (200 runs)

Circuit: * tb_fb_mc.spice — monte carlo mismatch analysis (200 runs)

Doing analysis at TEMP = 27.000000 and TNOM = 27.000000


No. of Data Rows : 1
Reset re-loads circuit * tb_fb_mc.spice — monte carlo mismatch analysis (200 runs)

Circuit: * tb_fb_mc.spice — monte carlo mismatch analysis (200 runs)

Doing analysis at TEMP = 27.000000 and TNOM = 27.000000


No. of Data Rows : 1
Reset re-loads circuit * tb_fb_mc.spice — monte carlo mismatch analysis (200 runs)

Circuit: * tb_fb_mc.spice — monte carlo mismatch analysis (200 runs)

Doing analysis at TEMP = 27.000000 and TNOM = 27.000000


No. of Data Rows : 1
Reset re-loads circuit * tb_fb_mc.spice — monte carlo mismatch analysis (200 runs)

Circuit: * tb_fb_mc.spice — monte carlo mismatch analysis (200 runs)

Doing analysis at TEMP = 27.000000 and TNOM = 27.000000


No. of Data Rows : 1
Reset re-loads circuit * tb_fb_mc.spice — monte carlo mismatch analysis (200 runs)

Circuit: * tb_fb_mc.spice — monte carlo mismatch analysis (200 runs)

Doing analysis at TEMP = 27.000000 and TNOM = 27.000000


No. of Data Rows : 1
Reset re-loads circuit * tb_fb_mc.spice — monte carlo mismatch analysis (200 runs)

Circuit: * tb_fb_mc.spice — monte carlo mismatch analysis (200 runs)

Doing analysis at TEMP = 27.000000 and TNOM = 27.000000


No. of Data Rows : 1
Reset re-loads circuit * tb_fb_mc.spice — monte carlo mismatch analysis (200 runs)

Circuit: * tb_fb_mc.spice — monte carlo mismatch analysis (200 runs)

Doing analysis at TEMP = 27.000000 and TNOM = 27.000000


No. of Data Rows : 1
Reset re-loads circuit * tb_fb_mc.spice — monte carlo mismatch analysis (200 runs)

Circuit: * tb_fb_mc.spice — monte carlo mismatch analysis (200 runs)

Doing analysis at TEMP = 27.000000 and TNOM = 27.000000


No. of Data Rows : 1
Reset re-loads circuit * tb_fb_mc.spice — monte carlo mismatch analysis (200 runs)

Circuit: * tb_fb_mc.spice — monte carlo mismatch analysis (200 runs)

Doing analysis at TEMP = 27.000000 and TNOM = 27.000000


No. of Data Rows : 1
Reset re-loads circuit * tb_fb_mc.spice — monte carlo mismatch analysis (200 runs)

Circuit: * tb_fb_mc.spice — monte carlo mismatch analysis (200 runs)

Doing analysis at TEMP = 27.000000 and TNOM = 27.000000


No. of Data Rows : 1
Reset re-loads circuit * tb_fb_mc.spice — monte carlo mismatch analysis (200 runs)

Circuit: * tb_fb_mc.spice — monte carlo mismatch analysis (200 runs)

Doing analysis at TEMP = 27.000000 and TNOM = 27.000000


No. of Data Rows : 1
Reset re-loads circuit * tb_fb_mc.spice — monte carlo mismatch analysis (200 runs)

Circuit: * tb_fb_mc.spice — monte carlo mismatch analysis (200 runs)

Doing analysis at TEMP = 27.000000 and TNOM = 27.000000


No. of Data Rows : 1
Reset re-loads circuit * tb_fb_mc.spice — monte carlo mismatch analysis (200 runs)

Circuit: * tb_fb_mc.spice — monte carlo mismatch analysis (200 runs)

Doing analysis at TEMP = 27.000000 and TNOM = 27.000000


No. of Data Rows : 1
Reset re-loads circuit * tb_fb_mc.spice — monte carlo mismatch analysis (200 runs)

Circuit: * tb_fb_mc.spice — monte carlo mismatch analysis (200 runs)

Doing analysis at TEMP = 27.000000 and TNOM = 27.000000


No. of Data Rows : 1
Reset re-loads circuit * tb_fb_mc.spice — monte carlo mismatch analysis (200 runs)

Circuit: * tb_fb_mc.spice — monte carlo mismatch analysis (200 runs)

Doing analysis at TEMP = 27.000000 and TNOM = 27.000000


No. of Data Rows : 1
Reset re-loads circuit * tb_fb_mc.spice — monte carlo mismatch analysis (200 runs)

Circuit: * tb_fb_mc.spice — monte carlo mismatch analysis (200 runs)

Doing analysis at TEMP = 27.Using SPARSE 1.3 as Direct Linear Solver
Using SPARSE 1.3 as Direct Linear Solver
Using SPARSE 1.3 as Direct Linear Solver
Using SPARSE 1.3 as Direct Linear Solver
Using SPARSE 1.3 as Direct Linear Solver
Using SPARSE 1.3 as Direct Linear Solver
Using SPARSE 1.3 as Direct Linear Solver
Using SPARSE 1.3 as Direct Linear Solver
Using SPARSE 1.3 as Direct Linear Solver
Using SPARSE 1.3 as Direct Linear Solver
Using SPARSE 1.3 as Direct Linear Solver
Using SPARSE 1.3 as Direct Linear Solver
Using SPARSE 1.3 as Direct Linear Solver
Using SPARSE 1.3 as Direct Linear Solver
Using SPARSE 1.3 as Direct Linear Solver
Using SPARSE 1.3 as Direct Linear Solver
Using SPARSE 1.3 as Direct Linear Solver
Using SPARSE 1.3 as Direct Linear Solver
000000 and TNOM = 27.000000


No. of Data Rows : 1
Reset re-loads circuit * tb_fb_mc.spice — monte carlo mismatch analysis (200 runs)

Circuit: * tb_fb_mc.spice — monte carlo mismatch analysis (200 runs)

Doing analysis at TEMP = 27.000000 and TNOM = 27.000000


No. of Data Rows : 1
Reset re-loads circuit * tb_fb_mc.spice — monte carlo mismatch analysis (200 runs)

Circuit: * tb_fb_mc.spice — monte carlo mismatch analysis (200 runs)

Doing analysis at TEMP = 27.000000 and TNOM = 27.000000


No. of Data Rows : 1
Reset re-loads circuit * tb_fb_mc.spice — monte carlo mismatch analysis (200 runs)

Circuit: * tb_fb_mc.spice — monte carlo mismatch analysis (200 runs)

Doing analysis at TEMP = 27.000000 and TNOM = 27.000000


No. of Data Rows : 1
Reset re-loads circuit * tb_fb_mc.spice — monte carlo mismatch analysis (200 runs)

Circuit: * tb_fb_mc.spice — monte carlo mismatch analysis (200 runs)

Doing analysis at TEMP = 27.000000 and TNOM = 27.000000


No. of Data Rows : 1
Reset re-loads circuit * tb_fb_mc.spice — monte carlo mismatch analysis (200 runs)

Circuit: * tb_fb_mc.spice — monte carlo mismatch analysis (200 runs)

Doing analysis at TEMP = 27.000000 and TNOM = 27.000000


No. of Data Rows : 1
Reset re-loads circuit * tb_fb_mc.spice — monte carlo mismatch analysis (200 runs)

Circuit: * tb_fb_mc.spice — monte carlo mismatch analysis (200 runs)

Doing analysis at TEMP = 27.000000 and TNOM = 27.000000


No. of Data Rows : 1
Reset re-loads circuit * tb_fb_mc.spice — monte carlo mismatch analysis (200 runs)

Circuit: * tb_fb_mc.spice — monte carlo mismatch analysis (200 runs)

Doing analysis at TEMP = 27.000000 and TNOM = 27.000000


No. of Data Rows : 1
Reset re-loads circuit * tb_fb_mc.spice — monte carlo mismatch analysis (200 runs)

Circuit: * tb_fb_mc.spice — monte carlo mismatch analysis (200 runs)

Doing analysis at TEMP = 27.000000 and TNOM = 27.000000


No. of Data Rows : 1
Reset re-loads circuit * tb_fb_mc.spice — monte carlo mismatch analysis (200 runs)

Circuit: * tb_fb_mc.spice — monte carlo mismatch analysis (200 runs)

Doing analysis at TEMP = 27.000000 and TNOM = 27.000000


No. of Data Rows : 1
Reset re-loads circuit * tb_fb_mc.spice — monte carlo mismatch analysis (200 runs)

Circuit: * tb_fb_mc.spice — monte carlo mismatch analysis (200 runs)

Doing analysis at TEMP = 27.000000 and TNOM = 27.000000


No. of Data Rows : 1
Reset re-loads circuit * tb_fb_mc.spice — monte carlo mismatch analysis (200 runs)

Circuit: * tb_fb_mc.spice — monte carlo mismatch analysis (200 runs)

Doing analysis at TEMP = 27.000000 and TNOM = 27.000000


No. of Data Rows : 1
Reset re-loads circuit * tb_fb_mc.spice — monte carlo mismatch analysis (200 runs)

Circuit: * tb_fb_mc.spice — monte carlo mismatch analysis (200 runs)

Doing analysis at TEMP = 27.000000 and TNOM = 27.000000


No. of Data Rows : 1
Reset re-loads circuit * tb_fb_mc.spice — monte carlo mismatch analysis (200 runs)

Circuit: * tb_fb_mc.spice — monte carlo mismatch analysis (200 runs)

Doing analysis at TEMP = 27.000000 and TNOM = 27.000000


No. of Data Rows : 1
Reset re-loads circuit * tb_fb_mc.spice — monte carlo mismatch analysis (200 runs)

Circuit: * tb_fb_mc.spice — monte carlo mismatch analysis (200 runs)

Doing analysis at TEMP = 27.000000 and TNOM = 27.000000


No. of Data Rows : 1
Reset re-loads circuit * tb_fb_mc.spice — monte carlo mismatch analysis (200 runs)

Circuit: * tb_fb_mc.spice — monte carlo mismatch analysis (200 runs)

Doing analysis at TEMP = 27.000000 and TNOM = 27.000000


No. of Data Rows : 1
Reset re-loads circuit * tb_fb_mc.spice — monte carlo mismatch analysis (200 runs)

Circuit: * tb_fb_mc.spice — monte carlo mismatch analysis (200 runs)

Doing analysis at TEMP = 27.000000 and TNOM = 27.000000


No. of Data Rows : 1
Reset re-loads circuit * tb_fb_mc.spice — monte carlo mismatch analysis (200 runs)

Circuit: * tb_fb_mc.spice — monte carlo mismatch analysis (200 runs)

Doing analysis at TEMP = 27.000000 and TNOM = 27.000000


No. of Data Rows : 1
Reset re-loads cUsing SPARSE 1.3 as Direct Linear Solver
Using SPARSE 1.3 as Direct Linear Solver
Using SPARSE 1.3 as Direct Linear Solver
Using SPARSE 1.3 as Direct Linear Solver
Using SPARSE 1.3 as Direct Linear Solver
Using SPARSE 1.3 as Direct Linear Solver
Using SPARSE 1.3 as Direct Linear Solver
Using SPARSE 1.3 as Direct Linear Solver
Using SPARSE 1.3 as Direct Linear Solver
Using SPARSE 1.3 as Direct Linear Solver
Using SPARSE 1.3 as Direct Linear Solver
Using SPARSE 1.3 as Direct Linear Solver
Using SPARSE 1.3 as Direct Linear Solver
Using SPARSE 1.3 as Direct Linear Solver
Using SPARSE 1.3 as Direct Linear Solver
Using SPARSE 1.3 as Direct Linear Solver
Using SPARSE 1.3 as Direct Linear Solver
ircuit * tb_fb_mc.spice — monte carlo mismatch analysis (200 runs)

Circuit: * tb_fb_mc.spice — monte carlo mismatch analysis (200 runs)

Doing analysis at TEMP = 27.000000 and TNOM = 27.000000


No. of Data Rows : 1
Reset re-loads circuit * tb_fb_mc.spice — monte carlo mismatch analysis (200 runs)

Circuit: * tb_fb_mc.spice — monte carlo mismatch analysis (200 runs)

Doing analysis at TEMP = 27.000000 and TNOM = 27.000000


No. of Data Rows : 1
Reset re-loads circuit * tb_fb_mc.spice — monte carlo mismatch analysis (200 runs)

Circuit: * tb_fb_mc.spice — monte carlo mismatch analysis (200 runs)

Doing analysis at TEMP = 27.000000 and TNOM = 27.000000


No. of Data Rows : 1
Reset re-loads circuit * tb_fb_mc.spice — monte carlo mismatch analysis (200 runs)

Circuit: * tb_fb_mc.spice — monte carlo mismatch analysis (200 runs)

Doing analysis at TEMP = 27.000000 and TNOM = 27.000000


No. of Data Rows : 1
Reset re-loads circuit * tb_fb_mc.spice — monte carlo mismatch analysis (200 runs)

Circuit: * tb_fb_mc.spice — monte carlo mismatch analysis (200 runs)

Doing analysis at TEMP = 27.000000 and TNOM = 27.000000


No. of Data Rows : 1
Reset re-loads circuit * tb_fb_mc.spice — monte carlo mismatch analysis (200 runs)

Circuit: * tb_fb_mc.spice — monte carlo mismatch analysis (200 runs)

Doing analysis at TEMP = 27.000000 and TNOM = 27.000000


No. of Data Rows : 1
Reset re-loads circuit * tb_fb_mc.spice — monte carlo mismatch analysis (200 runs)

Circuit: * tb_fb_mc.spice — monte carlo mismatch analysis (200 runs)

Doing analysis at TEMP = 27.000000 and TNOM = 27.000000


No. of Data Rows : 1
Reset re-loads circuit * tb_fb_mc.spice — monte carlo mismatch analysis (200 runs)

Circuit: * tb_fb_mc.spice — monte carlo mismatch analysis (200 runs)

Doing analysis at TEMP = 27.000000 and TNOM = 27.000000


No. of Data Rows : 1
Reset re-loads circuit * tb_fb_mc.spice — monte carlo mismatch analysis (200 runs)

Circuit: * tb_fb_mc.spice — monte carlo mismatch analysis (200 runs)

Doing analysis at TEMP = 27.000000 and TNOM = 27.000000


No. of Data Rows : 1
Reset re-loads circuit * tb_fb_mc.spice — monte carlo mismatch analysis (200 runs)

Circuit: * tb_fb_mc.spice — monte carlo mismatch analysis (200 runs)

Doing analysis at TEMP = 27.000000 and TNOM = 27.000000


No. of Data Rows : 1
Reset re-loads circuit * tb_fb_mc.spice — monte carlo mismatch analysis (200 runs)

Circuit: * tb_fb_mc.spice — monte carlo mismatch analysis (200 runs)

Doing analysis at TEMP = 27.000000 and TNOM = 27.000000


No. of Data Rows : 1
Reset re-loads circuit * tb_fb_mc.spice — monte carlo mismatch analysis (200 runs)

Circuit: * tb_fb_mc.spice — monte carlo mismatch analysis (200 runs)

Doing analysis at TEMP = 27.000000 and TNOM = 27.000000


No. of Data Rows : 1
Reset re-loads circuit * tb_fb_mc.spice — monte carlo mismatch analysis (200 runs)

Circuit: * tb_fb_mc.spice — monte carlo mismatch analysis (200 runs)

Doing analysis at TEMP = 27.000000 and TNOM = 27.000000


No. of Data Rows : 1
Reset re-loads circuit * tb_fb_mc.spice — monte carlo mismatch analysis (200 runs)

Circuit: * tb_fb_mc.spice — monte carlo mismatch analysis (200 runs)

Doing analysis at TEMP = 27.000000 and TNOM = 27.000000


No. of Data Rows : 1
Reset re-loads circuit * tb_fb_mc.spice — monte carlo mismatch analysis (200 runs)

Circuit: * tb_fb_mc.spice — monte carlo mismatch analysis (200 runs)

Doing analysis at TEMP = 27.000000 and TNOM = 27.000000


No. of Data Rows : 1
Reset re-loads circuit * tb_fb_mc.spice — monte carlo mismatch analysis (200 runs)

Circuit: * tb_fb_mc.spice — monte carlo mismatch analysis (200 runs)

Doing analysis at TEMP = 27.000000 and TNOM = 27.000000


No. of Data Rows : 1
Reset re-loads circuit * tb_fb_mc.spice — monte carlo mismatch analysis (200 runs)

Circuit: * tb_fb_mc.spice — monte carlo mismatch analysis (200 runs)

Doing analysis at TEMP = 27.000000 and TNOM = 27.000000


No. of Data Rows : 1
Reset re-loads circuit * tb_fb_mc.spice — monte carlo mismatch analysis (200 runsUsing SPARSE 1.3 as Direct Linear Solver
Using SPARSE 1.3 as Direct Linear Solver
Using SPARSE 1.3 as Direct Linear Solver
Using SPARSE 1.3 as Direct Linear Solver
Using SPARSE 1.3 as Direct Linear Solver
Using SPARSE 1.3 as Direct Linear Solver
Using SPARSE 1.3 as Direct Linear Solver
Using SPARSE 1.3 as Direct Linear Solver
Using SPARSE 1.3 as Direct Linear Solver
Using SPARSE 1.3 as Direct Linear Solver
Using SPARSE 1.3 as Direct Linear Solver
Using SPARSE 1.3 as Direct Linear Solver
Using SPARSE 1.3 as Direct Linear Solver
Using SPARSE 1.3 as Direct Linear Solver
Using SPARSE 1.3 as Direct Linear Solver
Using SPARSE 1.3 as Direct Linear Solver
Using SPARSE 1.3 as Direct Linear Solver
)

Circuit: * tb_fb_mc.spice — monte carlo mismatch analysis (200 runs)

Doing analysis at TEMP = 27.000000 and TNOM = 27.000000


No. of Data Rows : 1
Reset re-loads circuit * tb_fb_mc.spice — monte carlo mismatch analysis (200 runs)

Circuit: * tb_fb_mc.spice — monte carlo mismatch analysis (200 runs)

Doing analysis at TEMP = 27.000000 and TNOM = 27.000000


No. of Data Rows : 1
Reset re-loads circuit * tb_fb_mc.spice — monte carlo mismatch analysis (200 runs)

Circuit: * tb_fb_mc.spice — monte carlo mismatch analysis (200 runs)

Doing analysis at TEMP = 27.000000 and TNOM = 27.000000


No. of Data Rows : 1
Reset re-loads circuit * tb_fb_mc.spice — monte carlo mismatch analysis (200 runs)

Circuit: * tb_fb_mc.spice — monte carlo mismatch analysis (200 runs)

Doing analysis at TEMP = 27.000000 and TNOM = 27.000000


No. of Data Rows : 1
Reset re-loads circuit * tb_fb_mc.spice — monte carlo mismatch analysis (200 runs)

Circuit: * tb_fb_mc.spice — monte carlo mismatch analysis (200 runs)

Doing analysis at TEMP = 27.000000 and TNOM = 27.000000


No. of Data Rows : 1
Reset re-loads circuit * tb_fb_mc.spice — monte carlo mismatch analysis (200 runs)

Circuit: * tb_fb_mc.spice — monte carlo mismatch analysis (200 runs)

Doing analysis at TEMP = 27.000000 and TNOM = 27.000000


No. of Data Rows : 1
Reset re-loads circuit * tb_fb_mc.spice — monte carlo mismatch analysis (200 runs)

Circuit: * tb_fb_mc.spice — monte carlo mismatch analysis (200 runs)

Doing analysis at TEMP = 27.000000 and TNOM = 27.000000


No. of Data Rows : 1
Reset re-loads circuit * tb_fb_mc.spice — monte carlo mismatch analysis (200 runs)

Circuit: * tb_fb_mc.spice — monte carlo mismatch analysis (200 runs)

Doing analysis at TEMP = 27.000000 and TNOM = 27.000000


No. of Data Rows : 1
Reset re-loads circuit * tb_fb_mc.spice — monte carlo mismatch analysis (200 runs)

Circuit: * tb_fb_mc.spice — monte carlo mismatch analysis (200 runs)

Doing analysis at TEMP = 27.000000 and TNOM = 27.000000


No. of Data Rows : 1
Reset re-loads circuit * tb_fb_mc.spice — monte carlo mismatch analysis (200 runs)

Circuit: * tb_fb_mc.spice — monte carlo mismatch analysis (200 runs)

Doing analysis at TEMP = 27.000000 and TNOM = 27.000000


No. of Data Rows : 1
Reset re-loads circuit * tb_fb_mc.spice — monte carlo mismatch analysis (200 runs)

Circuit: * tb_fb_mc.spice — monte carlo mismatch analysis (200 runs)

Doing analysis at TEMP = 27.000000 and TNOM = 27.000000


No. of Data Rows : 1
Reset re-loads circuit * tb_fb_mc.spice — monte carlo mismatch analysis (200 runs)

Circuit: * tb_fb_mc.spice — monte carlo mismatch analysis (200 runs)

Doing analysis at TEMP = 27.000000 and TNOM = 27.000000


No. of Data Rows : 1
Reset re-loads circuit * tb_fb_mc.spice — monte carlo mismatch analysis (200 runs)

Circuit: * tb_fb_mc.spice — monte carlo mismatch analysis (200 runs)

Doing analysis at TEMP = 27.000000 and TNOM = 27.000000


No. of Data Rows : 1
Reset re-loads circuit * tb_fb_mc.spice — monte carlo mismatch analysis (200 runs)

Circuit: * tb_fb_mc.spice — monte carlo mismatch analysis (200 runs)

Doing analysis at TEMP = 27.000000 and TNOM = 27.000000


No. of Data Rows : 1
Reset re-loads circuit * tb_fb_mc.spice — monte carlo mismatch analysis (200 runs)

Circuit: * tb_fb_mc.spice — monte carlo mismatch analysis (200 runs)

Doing analysis at TEMP = 27.000000 and TNOM = 27.000000


No. of Data Rows : 1
Reset re-loads circuit * tb_fb_mc.spice — monte carlo mismatch analysis (200 runs)

Circuit: * tb_fb_mc.spice — monte carlo mismatch analysis (200 runs)

Doing analysis at TEMP = 27.000000 and TNOM = 27.000000


No. of Data Rows : 1
Reset re-loads circuit * tb_fb_mc.spice — monte carlo mismatch analysis (200 runs)

Circuit: * tb_fb_mc.spice — monte carlo mismatch analysis (200 runs)

Doing analysis at TEMP = 27.000000 and TNOM = 27.000000


No. of Data Rows : 1
Reset re-loads circuit * tb_fb_mc.spice — monte carlo mismatch analysis (200 runs)

Circuit: * tb_fb_mc.spice — monte carlo mismatch analysis (200Using SPARSE 1.3 as Direct Linear Solver
Using SPARSE 1.3 as Direct Linear Solver
Using SPARSE 1.3 as Direct Linear Solver
Using SPARSE 1.3 as Direct Linear Solver
Using SPARSE 1.3 as Direct Linear Solver
Using SPARSE 1.3 as Direct Linear Solver
Using SPARSE 1.3 as Direct Linear Solver
Using SPARSE 1.3 as Direct Linear Solver
Using SPARSE 1.3 as Direct Linear Solver
Using SPARSE 1.3 as Direct Linear Solver
Using SPARSE 1.3 as Direct Linear Solver
 runs)

Doing analysis at TEMP = 27.000000 and TNOM = 27.000000


No. of Data Rows : 1
Reset re-loads circuit * tb_fb_mc.spice — monte carlo mismatch analysis (200 runs)

Circuit: * tb_fb_mc.spice — monte carlo mismatch analysis (200 runs)

Doing analysis at TEMP = 27.000000 and TNOM = 27.000000


No. of Data Rows : 1
Reset re-loads circuit * tb_fb_mc.spice — monte carlo mismatch analysis (200 runs)

Circuit: * tb_fb_mc.spice — monte carlo mismatch analysis (200 runs)

Doing analysis at TEMP = 27.000000 and TNOM = 27.000000


No. of Data Rows : 1
Reset re-loads circuit * tb_fb_mc.spice — monte carlo mismatch analysis (200 runs)

Circuit: * tb_fb_mc.spice — monte carlo mismatch analysis (200 runs)

Doing analysis at TEMP = 27.000000 and TNOM = 27.000000


No. of Data Rows : 1
Reset re-loads circuit * tb_fb_mc.spice — monte carlo mismatch analysis (200 runs)

Circuit: * tb_fb_mc.spice — monte carlo mismatch analysis (200 runs)

Doing analysis at TEMP = 27.000000 and TNOM = 27.000000


No. of Data Rows : 1
Reset re-loads circuit * tb_fb_mc.spice — monte carlo mismatch analysis (200 runs)

Circuit: * tb_fb_mc.spice — monte carlo mismatch analysis (200 runs)

Doing analysis at TEMP = 27.000000 and TNOM = 27.000000


No. of Data Rows : 1
Reset re-loads circuit * tb_fb_mc.spice — monte carlo mismatch analysis (200 runs)

Circuit: * tb_fb_mc.spice — monte carlo mismatch analysis (200 runs)

Doing analysis at TEMP = 27.000000 and TNOM = 27.000000


No. of Data Rows : 1
Reset re-loads circuit * tb_fb_mc.spice — monte carlo mismatch analysis (200 runs)

Circuit: * tb_fb_mc.spice — monte carlo mismatch analysis (200 runs)

Doing analysis at TEMP = 27.000000 and TNOM = 27.000000


No. of Data Rows : 1
Reset re-loads circuit * tb_fb_mc.spice — monte carlo mismatch analysis (200 runs)

Circuit: * tb_fb_mc.spice — monte carlo mismatch analysis (200 runs)

Doing analysis at TEMP = 27.000000 and TNOM = 27.000000


No. of Data Rows : 1
Reset re-loads circuit * tb_fb_mc.spice — monte carlo mismatch analysis (200 runs)

Circuit: * tb_fb_mc.spice — monte carlo mismatch analysis (200 runs)

Doing analysis at TEMP = 27.000000 and TNOM = 27.000000


No. of Data Rows : 1
Reset re-loads circuit * tb_fb_mc.spice — monte carlo mismatch analysis (200 runs)

Circuit: * tb_fb_mc.spice — monte carlo mismatch analysis (200 runs)

Doing analysis at TEMP = 27.000000 and TNOM = 27.000000


No. of Data Rows : 1
=== Monte Carlo Mismatch (200 runs, TT 27C) ===
mc_vfb_mean_V: 1.2262
mc_vfb_std_mV: 2.57337
mc_vfb_min_V: 1.21974
mc_vfb_max_V: 1.23578
mc_vfb_3sigma_mV: 7.72011
ngspice-42 done
