Using SPARSE 1.3 as Direct Linear Solver
Using SPARSE 1.3 as Direct Linear Solver
Using SPARSE 1.3 as Direct Linear Solver
Using SPARSE 1.3 as Direct Linear Solver
Using SPARSE 1.3 as Direct Linear Solver
Using SPARSE 1.3 as Direct Linear Solver
Using SPARSE 1.3 as Direct Linear Solver
Using SPARSE 1.3 as Direct Linear Solver
Using SPARSE 1.3 as Direct Linear Solver
Using SPARSE 1.3 as Direct Linear Solver
Using SPARSE 1.3 as Direct Linear Solver
Using SPARSE 1.3 as Direct Linear Solver
Using SPARSE 1.3 as Direct Linear Solver
Using SPARSE 1.3 as Direct Linear Solver
Using SPARSE 1.3 as Direct Linear Solver
Using SPARSE 1.3 as Direct Linear Solver

Note: No compatibility mode selected!


Circuit: * tb_fb_mc.spice — monte carlo mismatch analysis (200 runs)

Reset re-loads circuit * tb_fb_mc.spice — monte carlo mismatch analysis (200 runs)

Circuit: * tb_fb_mc.spice — monte carlo mismatch analysis (200 runs)

Reset re-loads circuit * tb_fb_mc.spice — monte carlo mismatch analysis (200 runs)

Circuit: * tb_fb_mc.spice — monte carlo mismatch analysis (200 runs)

Doing analysis at TEMP = 27.000000 and TNOM = 27.000000


No. of Data Rows : 1
Reset re-loads circuit * tb_fb_mc.spice — monte carlo mismatch analysis (200 runs)

Circuit: * tb_fb_mc.spice — monte carlo mismatch analysis (200 runs)

Doing analysis at TEMP = 27.000000 and TNOM = 27.000000


No. of Data Rows : 1
Reset re-loads circuit * tb_fb_mc.spice — monte carlo mismatch analysis (200 runs)

Circuit: * tb_fb_mc.spice — monte carlo mismatch analysis (200 runs)

Doing analysis at TEMP = 27.000000 and TNOM = 27.000000


No. of Data Rows : 1
Reset re-loads circuit * tb_fb_mc.spice — monte carlo mismatch analysis (200 runs)

Circuit: * tb_fb_mc.spice — monte carlo mismatch analysis (200 runs)

Doing analysis at TEMP = 27.000000 and TNOM = 27.000000


No. of Data Rows : 1
Reset re-loads circuit * tb_fb_mc.spice — monte carlo mismatch analysis (200 runs)

Circuit: * tb_fb_mc.spice — monte carlo mismatch analysis (200 runs)

Doing analysis at TEMP = 27.000000 and TNOM = 27.000000


No. of Data Rows : 1
Reset re-loads circuit * tb_fb_mc.spice — monte carlo mismatch analysis (200 runs)

Circuit: * tb_fb_mc.spice — monte carlo mismatch analysis (200 runs)

Doing analysis at TEMP = 27.000000 and TNOM = 27.000000


No. of Data Rows : 1
Reset re-loads circuit * tb_fb_mc.spice — monte carlo mismatch analysis (200 runs)

Circuit: * tb_fb_mc.spice — monte carlo mismatch analysis (200 runs)

Doing analysis at TEMP = 27.000000 and TNOM = 27.000000


No. of Data Rows : 1
Reset re-loads circuit * tb_fb_mc.spice — monte carlo mismatch analysis (200 runs)

Circuit: * tb_fb_mc.spice — monte carlo mismatch analysis (200 runs)

Doing analysis at TEMP = 27.000000 and TNOM = 27.000000


No. of Data Rows : 1
Reset re-loads circuit * tb_fb_mc.spice — monte carlo mismatch analysis (200 runs)

Circuit: * tb_fb_mc.spice — monte carlo mismatch analysis (200 runs)

Doing analysis at TEMP = 27.000000 and TNOM = 27.000000


No. of Data Rows : 1
Reset re-loads circuit * tb_fb_mc.spice — monte carlo mismatch analysis (200 runs)

Circuit: * tb_fb_mc.spice — monte carlo mismatch analysis (200 runs)

Doing analysis at TEMP = 27.000000 and TNOM = 27.000000


No. of Data Rows : 1
Reset re-loads circuit * tb_fb_mc.spice — monte carlo mismatch analysis (200 runs)

Circuit: * tb_fb_mc.spice — monte carlo mismatch analysis (200 runs)

Doing analysis at TEMP = 27.000000 and TNOM = 27.000000


No. of Data Rows : 1
Reset re-loads circuit * tb_fb_mc.spice — monte carlo mismatch analysis (200 runs)

Circuit: * tb_fb_mc.spice — monte carlo mismatch analysis (200 runs)

Doing analysis at TEMP = 27.000000 and TNOM = 27.000000


No. of Data Rows : 1
Reset re-loads circuit * tb_fb_mc.spice — monte carlo mismatch analysis (200 runs)

Circuit: * tb_fb_mc.spice — monte carlo mismatch analysis (200 runs)

Doing analysis at TEMP = 27.000000 and TNOM = 27.000000


No. of Data Rows : 1
Reset re-loads circuit * tb_fb_mc.spice — monte carlo mismatch analysis (200 runs)

Circuit: * tb_fb_mc.spice — monte carlo mismatch analysis (200 runs)

Doing analysis at TEMP = 27.000000 and TNOM = 27.000000


No. of Data Rows : 1
Reset re-loads circuit * tb_fb_mc.spice — monte carlo mismatch analysis (200 runs)

Circuit: * tb_fb_mc.spice — monte carlo mismatch analysis (200 runs)

Doing analysis at TEMP = 27.000000 and TNOM = 27.000000


No. of Data Rows : 1
Reset re-loads circuit * tb_fb_mc.spice — monte carlo mismatch analysis (200 runs)

Circuit: * tb_fb_mc.spice — monte carlo mismatch analysis (200 runs)

Doing analysis at TEMP = 27.000000 and TNOM = 27.000000


No. of Data Rows : 1
Reset re-loads circuit * tb_fb_mcUsing SPARSE 1.3 as Direct Linear Solver
Using SPARSE 1.3 as Direct Linear Solver
Using SPARSE 1.3 as Direct Linear Solver
Using SPARSE 1.3 as Direct Linear Solver
Using SPARSE 1.3 as Direct Linear Solver
Using SPARSE 1.3 as Direct Linear Solver
Using SPARSE 1.3 as Direct Linear Solver
Using SPARSE 1.3 as Direct Linear Solver
Using SPARSE 1.3 as Direct Linear Solver
Using SPARSE 1.3 as Direct Linear Solver
Using SPARSE 1.3 as Direct Linear Solver
Using SPARSE 1.3 as Direct Linear Solver
Using SPARSE 1.3 as Direct Linear Solver
Using SPARSE 1.3 as Direct Linear Solver
Using SPARSE 1.3 as Direct Linear Solver
Using SPARSE 1.3 as Direct Linear Solver
Using SPARSE 1.3 as Direct Linear Solver
.spice — monte carlo mismatch analysis (200 runs)

Circuit: * tb_fb_mc.spice — monte carlo mismatch analysis (200 runs)

Doing analysis at TEMP = 27.000000 and TNOM = 27.000000


No. of Data Rows : 1
Reset re-loads circuit * tb_fb_mc.spice — monte carlo mismatch analysis (200 runs)

Circuit: * tb_fb_mc.spice — monte carlo mismatch analysis (200 runs)

Doing analysis at TEMP = 27.000000 and TNOM = 27.000000


No. of Data Rows : 1
Reset re-loads circuit * tb_fb_mc.spice — monte carlo mismatch analysis (200 runs)

Circuit: * tb_fb_mc.spice — monte carlo mismatch analysis (200 runs)

Doing analysis at TEMP = 27.000000 and TNOM = 27.000000


No. of Data Rows : 1
Reset re-loads circuit * tb_fb_mc.spice — monte carlo mismatch analysis (200 runs)

Circuit: * tb_fb_mc.spice — monte carlo mismatch analysis (200 runs)

Doing analysis at TEMP = 27.000000 and TNOM = 27.000000


No. of Data Rows : 1
Reset re-loads circuit * tb_fb_mc.spice — monte carlo mismatch analysis (200 runs)

Circuit: * tb_fb_mc.spice — monte carlo mismatch analysis (200 runs)

Doing analysis at TEMP = 27.000000 and TNOM = 27.000000


No. of Data Rows : 1
Reset re-loads circuit * tb_fb_mc.spice — monte carlo mismatch analysis (200 runs)

Circuit: * tb_fb_mc.spice — monte carlo mismatch analysis (200 runs)

Doing analysis at TEMP = 27.000000 and TNOM = 27.000000


No. of Data Rows : 1
Reset re-loads circuit * tb_fb_mc.spice — monte carlo mismatch analysis (200 runs)

Circuit: * tb_fb_mc.spice — monte carlo mismatch analysis (200 runs)

Doing analysis at TEMP = 27.000000 and TNOM = 27.000000


No. of Data Rows : 1
Reset re-loads circuit * tb_fb_mc.spice — monte carlo mismatch analysis (200 runs)

Circuit: * tb_fb_mc.spice — monte carlo mismatch analysis (200 runs)

Doing analysis at TEMP = 27.000000 and TNOM = 27.000000


No. of Data Rows : 1
Reset re-loads circuit * tb_fb_mc.spice — monte carlo mismatch analysis (200 runs)

Circuit: * tb_fb_mc.spice — monte carlo mismatch analysis (200 runs)

Doing analysis at TEMP = 27.000000 and TNOM = 27.000000


No. of Data Rows : 1
Reset re-loads circuit * tb_fb_mc.spice — monte carlo mismatch analysis (200 runs)

Circuit: * tb_fb_mc.spice — monte carlo mismatch analysis (200 runs)

Doing analysis at TEMP = 27.000000 and TNOM = 27.000000


No. of Data Rows : 1
Reset re-loads circuit * tb_fb_mc.spice — monte carlo mismatch analysis (200 runs)

Circuit: * tb_fb_mc.spice — monte carlo mismatch analysis (200 runs)

Doing analysis at TEMP = 27.000000 and TNOM = 27.000000


No. of Data Rows : 1
Reset re-loads circuit * tb_fb_mc.spice — monte carlo mismatch analysis (200 runs)

Circuit: * tb_fb_mc.spice — monte carlo mismatch analysis (200 runs)

Doing analysis at TEMP = 27.000000 and TNOM = 27.000000


No. of Data Rows : 1
Reset re-loads circuit * tb_fb_mc.spice — monte carlo mismatch analysis (200 runs)

Circuit: * tb_fb_mc.spice — monte carlo mismatch analysis (200 runs)

Doing analysis at TEMP = 27.000000 and TNOM = 27.000000


No. of Data Rows : 1
Reset re-loads circuit * tb_fb_mc.spice — monte carlo mismatch analysis (200 runs)

Circuit: * tb_fb_mc.spice — monte carlo mismatch analysis (200 runs)

Doing analysis at TEMP = 27.000000 and TNOM = 27.000000


No. of Data Rows : 1
Reset re-loads circuit * tb_fb_mc.spice — monte carlo mismatch analysis (200 runs)

Circuit: * tb_fb_mc.spice — monte carlo mismatch analysis (200 runs)

Doing analysis at TEMP = 27.000000 and TNOM = 27.000000


No. of Data Rows : 1
Reset re-loads circuit * tb_fb_mc.spice — monte carlo mismatch analysis (200 runs)

Circuit: * tb_fb_mc.spice — monte carlo mismatch analysis (200 runs)

Doing analysis at TEMP = 27.000000 and TNOM = 27.000000


No. of Data Rows : 1
Reset re-loads circuit * tb_fb_mc.spice — monte carlo mismatch analysis (200 runs)

Circuit: * tb_fb_mc.spice — monte carlo mismatch analysis (200 runs)

Doing analysis at TEMP = 27.000000 and TNOM = 27.000000


No. of Data Rows : 1
Reset re-loads circuit * tb_fb_mc.spice — monte carlo mismatch analysis (200 runs)

Circuit: * tb_Using SPARSE 1.3 as Direct Linear Solver
Using SPARSE 1.3 as Direct Linear Solver
Using SPARSE 1.3 as Direct Linear Solver
Using SPARSE 1.3 as Direct Linear Solver
Using SPARSE 1.3 as Direct Linear Solver
Using SPARSE 1.3 as Direct Linear Solver
Using SPARSE 1.3 as Direct Linear Solver
Using SPARSE 1.3 as Direct Linear Solver
Using SPARSE 1.3 as Direct Linear Solver
Using SPARSE 1.3 as Direct Linear Solver
Using SPARSE 1.3 as Direct Linear Solver
Using SPARSE 1.3 as Direct Linear Solver
Using SPARSE 1.3 as Direct Linear Solver
Using SPARSE 1.3 as Direct Linear Solver
Using SPARSE 1.3 as Direct Linear Solver
Using SPARSE 1.3 as Direct Linear Solver
Using SPARSE 1.3 as Direct Linear Solver
fb_mc.spice — monte carlo mismatch analysis (200 runs)

Doing analysis at TEMP = 27.000000 and TNOM = 27.000000


No. of Data Rows : 1
Reset re-loads circuit * tb_fb_mc.spice — monte carlo mismatch analysis (200 runs)

Circuit: * tb_fb_mc.spice — monte carlo mismatch analysis (200 runs)

Doing analysis at TEMP = 27.000000 and TNOM = 27.000000


No. of Data Rows : 1
Reset re-loads circuit * tb_fb_mc.spice — monte carlo mismatch analysis (200 runs)

Circuit: * tb_fb_mc.spice — monte carlo mismatch analysis (200 runs)

Doing analysis at TEMP = 27.000000 and TNOM = 27.000000


No. of Data Rows : 1
Reset re-loads circuit * tb_fb_mc.spice — monte carlo mismatch analysis (200 runs)

Circuit: * tb_fb_mc.spice — monte carlo mismatch analysis (200 runs)

Doing analysis at TEMP = 27.000000 and TNOM = 27.000000


No. of Data Rows : 1
Reset re-loads circuit * tb_fb_mc.spice — monte carlo mismatch analysis (200 runs)

Circuit: * tb_fb_mc.spice — monte carlo mismatch analysis (200 runs)

Doing analysis at TEMP = 27.000000 and TNOM = 27.000000


No. of Data Rows : 1
Reset re-loads circuit * tb_fb_mc.spice — monte carlo mismatch analysis (200 runs)

Circuit: * tb_fb_mc.spice — monte carlo mismatch analysis (200 runs)

Doing analysis at TEMP = 27.000000 and TNOM = 27.000000


No. of Data Rows : 1
Reset re-loads circuit * tb_fb_mc.spice — monte carlo mismatch analysis (200 runs)

Circuit: * tb_fb_mc.spice — monte carlo mismatch analysis (200 runs)

Doing analysis at TEMP = 27.000000 and TNOM = 27.000000


No. of Data Rows : 1
Reset re-loads circuit * tb_fb_mc.spice — monte carlo mismatch analysis (200 runs)

Circuit: * tb_fb_mc.spice — monte carlo mismatch analysis (200 runs)

Doing analysis at TEMP = 27.000000 and TNOM = 27.000000


No. of Data Rows : 1
Reset re-loads circuit * tb_fb_mc.spice — monte carlo mismatch analysis (200 runs)

Circuit: * tb_fb_mc.spice — monte carlo mismatch analysis (200 runs)

Doing analysis at TEMP = 27.000000 and TNOM = 27.000000


No. of Data Rows : 1
Reset re-loads circuit * tb_fb_mc.spice — monte carlo mismatch analysis (200 runs)

Circuit: * tb_fb_mc.spice — monte carlo mismatch analysis (200 runs)

Doing analysis at TEMP = 27.000000 and TNOM = 27.000000


No. of Data Rows : 1
Reset re-loads circuit * tb_fb_mc.spice — monte carlo mismatch analysis (200 runs)

Circuit: * tb_fb_mc.spice — monte carlo mismatch analysis (200 runs)

Doing analysis at TEMP = 27.000000 and TNOM = 27.000000


No. of Data Rows : 1
Reset re-loads circuit * tb_fb_mc.spice — monte carlo mismatch analysis (200 runs)

Circuit: * tb_fb_mc.spice — monte carlo mismatch analysis (200 runs)

Doing analysis at TEMP = 27.000000 and TNOM = 27.000000


No. of Data Rows : 1
Reset re-loads circuit * tb_fb_mc.spice — monte carlo mismatch analysis (200 runs)

Circuit: * tb_fb_mc.spice — monte carlo mismatch analysis (200 runs)

Doing analysis at TEMP = 27.000000 and TNOM = 27.000000


No. of Data Rows : 1
Reset re-loads circuit * tb_fb_mc.spice — monte carlo mismatch analysis (200 runs)

Circuit: * tb_fb_mc.spice — monte carlo mismatch analysis (200 runs)

Doing analysis at TEMP = 27.000000 and TNOM = 27.000000


No. of Data Rows : 1
Reset re-loads circuit * tb_fb_mc.spice — monte carlo mismatch analysis (200 runs)

Circuit: * tb_fb_mc.spice — monte carlo mismatch analysis (200 runs)

Doing analysis at TEMP = 27.000000 and TNOM = 27.000000


No. of Data Rows : 1
Reset re-loads circuit * tb_fb_mc.spice — monte carlo mismatch analysis (200 runs)

Circuit: * tb_fb_mc.spice — monte carlo mismatch analysis (200 runs)

Doing analysis at TEMP = 27.000000 and TNOM = 27.000000


No. of Data Rows : 1
Reset re-loads circuit * tb_fb_mc.spice — monte carlo mismatch analysis (200 runs)

Circuit: * tb_fb_mc.spice — monte carlo mismatch analysis (200 runs)

Doing analysis at TEMP = 27.000000 and TNOM = 27.000000


No. of Data Rows : 1
Reset re-loads circuit * tb_fb_mc.spice — monte carlo mismatch analysis (200 runs)

Circuit: * tb_fb_mc.spice — monte carlo mismatch analysis (200 runs)

Doing anaUsing SPARSE 1.3 as Direct Linear Solver
Using SPARSE 1.3 as Direct Linear Solver
Using SPARSE 1.3 as Direct Linear Solver
Using SPARSE 1.3 as Direct Linear Solver
Using SPARSE 1.3 as Direct Linear Solver
Using SPARSE 1.3 as Direct Linear Solver
Using SPARSE 1.3 as Direct Linear Solver
Using SPARSE 1.3 as Direct Linear Solver
Using SPARSE 1.3 as Direct Linear Solver
Using SPARSE 1.3 as Direct Linear Solver
Using SPARSE 1.3 as Direct Linear Solver
Using SPARSE 1.3 as Direct Linear Solver
Using SPARSE 1.3 as Direct Linear Solver
Using SPARSE 1.3 as Direct Linear Solver
Using SPARSE 1.3 as Direct Linear Solver
Using SPARSE 1.3 as Direct Linear Solver
Using SPARSE 1.3 as Direct Linear Solver
Using SPARSE 1.3 as Direct Linear Solver
lysis at TEMP = 27.000000 and TNOM = 27.000000


No. of Data Rows : 1
Reset re-loads circuit * tb_fb_mc.spice — monte carlo mismatch analysis (200 runs)

Circuit: * tb_fb_mc.spice — monte carlo mismatch analysis (200 runs)

Doing analysis at TEMP = 27.000000 and TNOM = 27.000000


No. of Data Rows : 1
Reset re-loads circuit * tb_fb_mc.spice — monte carlo mismatch analysis (200 runs)

Circuit: * tb_fb_mc.spice — monte carlo mismatch analysis (200 runs)

Doing analysis at TEMP = 27.000000 and TNOM = 27.000000


No. of Data Rows : 1
Reset re-loads circuit * tb_fb_mc.spice — monte carlo mismatch analysis (200 runs)

Circuit: * tb_fb_mc.spice — monte carlo mismatch analysis (200 runs)

Doing analysis at TEMP = 27.000000 and TNOM = 27.000000


No. of Data Rows : 1
Reset re-loads circuit * tb_fb_mc.spice — monte carlo mismatch analysis (200 runs)

Circuit: * tb_fb_mc.spice — monte carlo mismatch analysis (200 runs)

Doing analysis at TEMP = 27.000000 and TNOM = 27.000000


No. of Data Rows : 1
Reset re-loads circuit * tb_fb_mc.spice — monte carlo mismatch analysis (200 runs)

Circuit: * tb_fb_mc.spice — monte carlo mismatch analysis (200 runs)

Doing analysis at TEMP = 27.000000 and TNOM = 27.000000


No. of Data Rows : 1
Reset re-loads circuit * tb_fb_mc.spice — monte carlo mismatch analysis (200 runs)

Circuit: * tb_fb_mc.spice — monte carlo mismatch analysis (200 runs)

Doing analysis at TEMP = 27.000000 and TNOM = 27.000000


No. of Data Rows : 1
Reset re-loads circuit * tb_fb_mc.spice — monte carlo mismatch analysis (200 runs)

Circuit: * tb_fb_mc.spice — monte carlo mismatch analysis (200 runs)

Doing analysis at TEMP = 27.000000 and TNOM = 27.000000


No. of Data Rows : 1
Reset re-loads circuit * tb_fb_mc.spice — monte carlo mismatch analysis (200 runs)

Circuit: * tb_fb_mc.spice — monte carlo mismatch analysis (200 runs)

Doing analysis at TEMP = 27.000000 and TNOM = 27.000000


No. of Data Rows : 1
Reset re-loads circuit * tb_fb_mc.spice — monte carlo mismatch analysis (200 runs)

Circuit: * tb_fb_mc.spice — monte carlo mismatch analysis (200 runs)

Doing analysis at TEMP = 27.000000 and TNOM = 27.000000


No. of Data Rows : 1
Reset re-loads circuit * tb_fb_mc.spice — monte carlo mismatch analysis (200 runs)

Circuit: * tb_fb_mc.spice — monte carlo mismatch analysis (200 runs)

Doing analysis at TEMP = 27.000000 and TNOM = 27.000000


No. of Data Rows : 1
Reset re-loads circuit * tb_fb_mc.spice — monte carlo mismatch analysis (200 runs)

Circuit: * tb_fb_mc.spice — monte carlo mismatch analysis (200 runs)

Doing analysis at TEMP = 27.000000 and TNOM = 27.000000


No. of Data Rows : 1
Reset re-loads circuit * tb_fb_mc.spice — monte carlo mismatch analysis (200 runs)

Circuit: * tb_fb_mc.spice — monte carlo mismatch analysis (200 runs)

Doing analysis at TEMP = 27.000000 and TNOM = 27.000000


No. of Data Rows : 1
Reset re-loads circuit * tb_fb_mc.spice — monte carlo mismatch analysis (200 runs)

Circuit: * tb_fb_mc.spice — monte carlo mismatch analysis (200 runs)

Doing analysis at TEMP = 27.000000 and TNOM = 27.000000


No. of Data Rows : 1
Reset re-loads circuit * tb_fb_mc.spice — monte carlo mismatch analysis (200 runs)

Circuit: * tb_fb_mc.spice — monte carlo mismatch analysis (200 runs)

Doing analysis at TEMP = 27.000000 and TNOM = 27.000000


No. of Data Rows : 1
Reset re-loads circuit * tb_fb_mc.spice — monte carlo mismatch analysis (200 runs)

Circuit: * tb_fb_mc.spice — monte carlo mismatch analysis (200 runs)

Doing analysis at TEMP = 27.000000 and TNOM = 27.000000


No. of Data Rows : 1
Reset re-loads circuit * tb_fb_mc.spice — monte carlo mismatch analysis (200 runs)

Circuit: * tb_fb_mc.spice — monte carlo mismatch analysis (200 runs)

Doing analysis at TEMP = 27.000000 and TNOM = 27.000000


No. of Data Rows : 1
Reset re-loads circuit * tb_fb_mc.spice — monte carlo mismatch analysis (200 runs)

Circuit: * tb_fb_mc.spice — monte carlo mismatch analysis (200 runs)

Doing analysis at TEMP = 27.000000 and TNOM = 27.000000


No. of Data Rows :Using SPARSE 1.3 as Direct Linear Solver
Using SPARSE 1.3 as Direct Linear Solver
Using SPARSE 1.3 as Direct Linear Solver
Using SPARSE 1.3 as Direct Linear Solver
Using SPARSE 1.3 as Direct Linear Solver
Using SPARSE 1.3 as Direct Linear Solver
Using SPARSE 1.3 as Direct Linear Solver
Using SPARSE 1.3 as Direct Linear Solver
Using SPARSE 1.3 as Direct Linear Solver
Using SPARSE 1.3 as Direct Linear Solver
Using SPARSE 1.3 as Direct Linear Solver
Using SPARSE 1.3 as Direct Linear Solver
Using SPARSE 1.3 as Direct Linear Solver
Using SPARSE 1.3 as Direct Linear Solver
Using SPARSE 1.3 as Direct Linear Solver
Using SPARSE 1.3 as Direct Linear Solver
Using SPARSE 1.3 as Direct Linear Solver
 1
Reset re-loads circuit * tb_fb_mc.spice — monte carlo mismatch analysis (200 runs)

Circuit: * tb_fb_mc.spice — monte carlo mismatch analysis (200 runs)

Doing analysis at TEMP = 27.000000 and TNOM = 27.000000


No. of Data Rows : 1
Reset re-loads circuit * tb_fb_mc.spice — monte carlo mismatch analysis (200 runs)

Circuit: * tb_fb_mc.spice — monte carlo mismatch analysis (200 runs)

Doing analysis at TEMP = 27.000000 and TNOM = 27.000000


No. of Data Rows : 1
Reset re-loads circuit * tb_fb_mc.spice — monte carlo mismatch analysis (200 runs)

Circuit: * tb_fb_mc.spice — monte carlo mismatch analysis (200 runs)

Doing analysis at TEMP = 27.000000 and TNOM = 27.000000


No. of Data Rows : 1
Reset re-loads circuit * tb_fb_mc.spice — monte carlo mismatch analysis (200 runs)

Circuit: * tb_fb_mc.spice — monte carlo mismatch analysis (200 runs)

Doing analysis at TEMP = 27.000000 and TNOM = 27.000000


No. of Data Rows : 1
Reset re-loads circuit * tb_fb_mc.spice — monte carlo mismatch analysis (200 runs)

Circuit: * tb_fb_mc.spice — monte carlo mismatch analysis (200 runs)

Doing analysis at TEMP = 27.000000 and TNOM = 27.000000


No. of Data Rows : 1
Reset re-loads circuit * tb_fb_mc.spice — monte carlo mismatch analysis (200 runs)

Circuit: * tb_fb_mc.spice — monte carlo mismatch analysis (200 runs)

Doing analysis at TEMP = 27.000000 and TNOM = 27.000000


No. of Data Rows : 1
Reset re-loads circuit * tb_fb_mc.spice — monte carlo mismatch analysis (200 runs)

Circuit: * tb_fb_mc.spice — monte carlo mismatch analysis (200 runs)

Doing analysis at TEMP = 27.000000 and TNOM = 27.000000


No. of Data Rows : 1
Reset re-loads circuit * tb_fb_mc.spice — monte carlo mismatch analysis (200 runs)

Circuit: * tb_fb_mc.spice — monte carlo mismatch analysis (200 runs)

Doing analysis at TEMP = 27.000000 and TNOM = 27.000000


No. of Data Rows : 1
Reset re-loads circuit * tb_fb_mc.spice — monte carlo mismatch analysis (200 runs)

Circuit: * tb_fb_mc.spice — monte carlo mismatch analysis (200 runs)

Doing analysis at TEMP = 27.000000 and TNOM = 27.000000


No. of Data Rows : 1
Reset re-loads circuit * tb_fb_mc.spice — monte carlo mismatch analysis (200 runs)

Circuit: * tb_fb_mc.spice — monte carlo mismatch analysis (200 runs)

Doing analysis at TEMP = 27.000000 and TNOM = 27.000000


No. of Data Rows : 1
Reset re-loads circuit * tb_fb_mc.spice — monte carlo mismatch analysis (200 runs)

Circuit: * tb_fb_mc.spice — monte carlo mismatch analysis (200 runs)

Doing analysis at TEMP = 27.000000 and TNOM = 27.000000


No. of Data Rows : 1
Reset re-loads circuit * tb_fb_mc.spice — monte carlo mismatch analysis (200 runs)

Circuit: * tb_fb_mc.spice — monte carlo mismatch analysis (200 runs)

Doing analysis at TEMP = 27.000000 and TNOM = 27.000000


No. of Data Rows : 1
Reset re-loads circuit * tb_fb_mc.spice — monte carlo mismatch analysis (200 runs)

Circuit: * tb_fb_mc.spice — monte carlo mismatch analysis (200 runs)

Doing analysis at TEMP = 27.000000 and TNOM = 27.000000


No. of Data Rows : 1
Reset re-loads circuit * tb_fb_mc.spice — monte carlo mismatch analysis (200 runs)

Circuit: * tb_fb_mc.spice — monte carlo mismatch analysis (200 runs)

Doing analysis at TEMP = 27.000000 and TNOM = 27.000000


No. of Data Rows : 1
Reset re-loads circuit * tb_fb_mc.spice — monte carlo mismatch analysis (200 runs)

Circuit: * tb_fb_mc.spice — monte carlo mismatch analysis (200 runs)

Doing analysis at TEMP = 27.000000 and TNOM = 27.000000


No. of Data Rows : 1
Reset re-loads circuit * tb_fb_mc.spice — monte carlo mismatch analysis (200 runs)

Circuit: * tb_fb_mc.spice — monte carlo mismatch analysis (200 runs)

Doing analysis at TEMP = 27.000000 and TNOM = 27.000000


No. of Data Rows : 1
Reset re-loads circuit * tb_fb_mc.spice — monte carlo mismatch analysis (200 runs)

Circuit: * tb_fb_mc.spice — monte carlo mismatch analysis (200 runs)

Doing analysis at TEMP = 27.000000 and TNOM = 27.000000


No. of Data Rows : 1
Reset re-loads circuit * tb_fb_mc.spice — monte carlo mismatchUsing SPARSE 1.3 as Direct Linear Solver
Using SPARSE 1.3 as Direct Linear Solver
Using SPARSE 1.3 as Direct Linear Solver
Using SPARSE 1.3 as Direct Linear Solver
Using SPARSE 1.3 as Direct Linear Solver
Using SPARSE 1.3 as Direct Linear Solver
Using SPARSE 1.3 as Direct Linear Solver
Using SPARSE 1.3 as Direct Linear Solver
Using SPARSE 1.3 as Direct Linear Solver
Using SPARSE 1.3 as Direct Linear Solver
Using SPARSE 1.3 as Direct Linear Solver
Using SPARSE 1.3 as Direct Linear Solver
Using SPARSE 1.3 as Direct Linear Solver
Using SPARSE 1.3 as Direct Linear Solver
Using SPARSE 1.3 as Direct Linear Solver
Using SPARSE 1.3 as Direct Linear Solver
Using SPARSE 1.3 as Direct Linear Solver
 analysis (200 runs)

Circuit: * tb_fb_mc.spice — monte carlo mismatch analysis (200 runs)

Doing analysis at TEMP = 27.000000 and TNOM = 27.000000


No. of Data Rows : 1
Reset re-loads circuit * tb_fb_mc.spice — monte carlo mismatch analysis (200 runs)

Circuit: * tb_fb_mc.spice — monte carlo mismatch analysis (200 runs)

Doing analysis at TEMP = 27.000000 and TNOM = 27.000000


No. of Data Rows : 1
Reset re-loads circuit * tb_fb_mc.spice — monte carlo mismatch analysis (200 runs)

Circuit: * tb_fb_mc.spice — monte carlo mismatch analysis (200 runs)

Doing analysis at TEMP = 27.000000 and TNOM = 27.000000


No. of Data Rows : 1
Reset re-loads circuit * tb_fb_mc.spice — monte carlo mismatch analysis (200 runs)

Circuit: * tb_fb_mc.spice — monte carlo mismatch analysis (200 runs)

Doing analysis at TEMP = 27.000000 and TNOM = 27.000000


No. of Data Rows : 1
Reset re-loads circuit * tb_fb_mc.spice — monte carlo mismatch analysis (200 runs)

Circuit: * tb_fb_mc.spice — monte carlo mismatch analysis (200 runs)

Doing analysis at TEMP = 27.000000 and TNOM = 27.000000


No. of Data Rows : 1
Reset re-loads circuit * tb_fb_mc.spice — monte carlo mismatch analysis (200 runs)

Circuit: * tb_fb_mc.spice — monte carlo mismatch analysis (200 runs)

Doing analysis at TEMP = 27.000000 and TNOM = 27.000000


No. of Data Rows : 1
Reset re-loads circuit * tb_fb_mc.spice — monte carlo mismatch analysis (200 runs)

Circuit: * tb_fb_mc.spice — monte carlo mismatch analysis (200 runs)

Doing analysis at TEMP = 27.000000 and TNOM = 27.000000


No. of Data Rows : 1
Reset re-loads circuit * tb_fb_mc.spice — monte carlo mismatch analysis (200 runs)

Circuit: * tb_fb_mc.spice — monte carlo mismatch analysis (200 runs)

Doing analysis at TEMP = 27.000000 and TNOM = 27.000000


No. of Data Rows : 1
Reset re-loads circuit * tb_fb_mc.spice — monte carlo mismatch analysis (200 runs)

Circuit: * tb_fb_mc.spice — monte carlo mismatch analysis (200 runs)

Doing analysis at TEMP = 27.000000 and TNOM = 27.000000


No. of Data Rows : 1
Reset re-loads circuit * tb_fb_mc.spice — monte carlo mismatch analysis (200 runs)

Circuit: * tb_fb_mc.spice — monte carlo mismatch analysis (200 runs)

Doing analysis at TEMP = 27.000000 and TNOM = 27.000000


No. of Data Rows : 1
Reset re-loads circuit * tb_fb_mc.spice — monte carlo mismatch analysis (200 runs)

Circuit: * tb_fb_mc.spice — monte carlo mismatch analysis (200 runs)

Doing analysis at TEMP = 27.000000 and TNOM = 27.000000


No. of Data Rows : 1
Reset re-loads circuit * tb_fb_mc.spice — monte carlo mismatch analysis (200 runs)

Circuit: * tb_fb_mc.spice — monte carlo mismatch analysis (200 runs)

Doing analysis at TEMP = 27.000000 and TNOM = 27.000000


No. of Data Rows : 1
Reset re-loads circuit * tb_fb_mc.spice — monte carlo mismatch analysis (200 runs)

Circuit: * tb_fb_mc.spice — monte carlo mismatch analysis (200 runs)

Doing analysis at TEMP = 27.000000 and TNOM = 27.000000


No. of Data Rows : 1
Reset re-loads circuit * tb_fb_mc.spice — monte carlo mismatch analysis (200 runs)

Circuit: * tb_fb_mc.spice — monte carlo mismatch analysis (200 runs)

Doing analysis at TEMP = 27.000000 and TNOM = 27.000000


No. of Data Rows : 1
Reset re-loads circuit * tb_fb_mc.spice — monte carlo mismatch analysis (200 runs)

Circuit: * tb_fb_mc.spice — monte carlo mismatch analysis (200 runs)

Doing analysis at TEMP = 27.000000 and TNOM = 27.000000


No. of Data Rows : 1
Reset re-loads circuit * tb_fb_mc.spice — monte carlo mismatch analysis (200 runs)

Circuit: * tb_fb_mc.spice — monte carlo mismatch analysis (200 runs)

Doing analysis at TEMP = 27.000000 and TNOM = 27.000000


No. of Data Rows : 1
Reset re-loads circuit * tb_fb_mc.spice — monte carlo mismatch analysis (200 runs)

Circuit: * tb_fb_mc.spice — monte carlo mismatch analysis (200 runs)

Doing analysis at TEMP = 27.000000 and TNOM = 27.000000


No. of Data Rows : 1
Reset re-loads circuit * tb_fb_mc.spice — monte carlo mismatch analysis (200 runs)

Circuit: * tb_fb_mc.spice — monte carlo misUsing SPARSE 1.3 as Direct Linear Solver
Using SPARSE 1.3 as Direct Linear Solver
Using SPARSE 1.3 as Direct Linear Solver
Using SPARSE 1.3 as Direct Linear Solver
Using SPARSE 1.3 as Direct Linear Solver
Using SPARSE 1.3 as Direct Linear Solver
Using SPARSE 1.3 as Direct Linear Solver
Using SPARSE 1.3 as Direct Linear Solver
Using SPARSE 1.3 as Direct Linear Solver
Using SPARSE 1.3 as Direct Linear Solver
Using SPARSE 1.3 as Direct Linear Solver
Using SPARSE 1.3 as Direct Linear Solver
Using SPARSE 1.3 as Direct Linear Solver
Using SPARSE 1.3 as Direct Linear Solver
Using SPARSE 1.3 as Direct Linear Solver
Using SPARSE 1.3 as Direct Linear Solver
Using SPARSE 1.3 as Direct Linear Solver
match analysis (200 runs)

Doing analysis at TEMP = 27.000000 and TNOM = 27.000000


No. of Data Rows : 1
Reset re-loads circuit * tb_fb_mc.spice — monte carlo mismatch analysis (200 runs)

Circuit: * tb_fb_mc.spice — monte carlo mismatch analysis (200 runs)

Doing analysis at TEMP = 27.000000 and TNOM = 27.000000


No. of Data Rows : 1
Reset re-loads circuit * tb_fb_mc.spice — monte carlo mismatch analysis (200 runs)

Circuit: * tb_fb_mc.spice — monte carlo mismatch analysis (200 runs)

Doing analysis at TEMP = 27.000000 and TNOM = 27.000000


No. of Data Rows : 1
Reset re-loads circuit * tb_fb_mc.spice — monte carlo mismatch analysis (200 runs)

Circuit: * tb_fb_mc.spice — monte carlo mismatch analysis (200 runs)

Doing analysis at TEMP = 27.000000 and TNOM = 27.000000


No. of Data Rows : 1
Reset re-loads circuit * tb_fb_mc.spice — monte carlo mismatch analysis (200 runs)

Circuit: * tb_fb_mc.spice — monte carlo mismatch analysis (200 runs)

Doing analysis at TEMP = 27.000000 and TNOM = 27.000000


No. of Data Rows : 1
Reset re-loads circuit * tb_fb_mc.spice — monte carlo mismatch analysis (200 runs)

Circuit: * tb_fb_mc.spice — monte carlo mismatch analysis (200 runs)

Doing analysis at TEMP = 27.000000 and TNOM = 27.000000


No. of Data Rows : 1
Reset re-loads circuit * tb_fb_mc.spice — monte carlo mismatch analysis (200 runs)

Circuit: * tb_fb_mc.spice — monte carlo mismatch analysis (200 runs)

Doing analysis at TEMP = 27.000000 and TNOM = 27.000000


No. of Data Rows : 1
Reset re-loads circuit * tb_fb_mc.spice — monte carlo mismatch analysis (200 runs)

Circuit: * tb_fb_mc.spice — monte carlo mismatch analysis (200 runs)

Doing analysis at TEMP = 27.000000 and TNOM = 27.000000


No. of Data Rows : 1
Reset re-loads circuit * tb_fb_mc.spice — monte carlo mismatch analysis (200 runs)

Circuit: * tb_fb_mc.spice — monte carlo mismatch analysis (200 runs)

Doing analysis at TEMP = 27.000000 and TNOM = 27.000000


No. of Data Rows : 1
Reset re-loads circuit * tb_fb_mc.spice — monte carlo mismatch analysis (200 runs)

Circuit: * tb_fb_mc.spice — monte carlo mismatch analysis (200 runs)

Doing analysis at TEMP = 27.000000 and TNOM = 27.000000


No. of Data Rows : 1
Reset re-loads circuit * tb_fb_mc.spice — monte carlo mismatch analysis (200 runs)

Circuit: * tb_fb_mc.spice — monte carlo mismatch analysis (200 runs)

Doing analysis at TEMP = 27.000000 and TNOM = 27.000000


No. of Data Rows : 1
Reset re-loads circuit * tb_fb_mc.spice — monte carlo mismatch analysis (200 runs)

Circuit: * tb_fb_mc.spice — monte carlo mismatch analysis (200 runs)

Doing analysis at TEMP = 27.000000 and TNOM = 27.000000


No. of Data Rows : 1
Reset re-loads circuit * tb_fb_mc.spice — monte carlo mismatch analysis (200 runs)

Circuit: * tb_fb_mc.spice — monte carlo mismatch analysis (200 runs)

Doing analysis at TEMP = 27.000000 and TNOM = 27.000000


No. of Data Rows : 1
Reset re-loads circuit * tb_fb_mc.spice — monte carlo mismatch analysis (200 runs)

Circuit: * tb_fb_mc.spice — monte carlo mismatch analysis (200 runs)

Doing analysis at TEMP = 27.000000 and TNOM = 27.000000


No. of Data Rows : 1
Reset re-loads circuit * tb_fb_mc.spice — monte carlo mismatch analysis (200 runs)

Circuit: * tb_fb_mc.spice — monte carlo mismatch analysis (200 runs)

Doing analysis at TEMP = 27.000000 and TNOM = 27.000000


No. of Data Rows : 1
Reset re-loads circuit * tb_fb_mc.spice — monte carlo mismatch analysis (200 runs)

Circuit: * tb_fb_mc.spice — monte carlo mismatch analysis (200 runs)

Doing analysis at TEMP = 27.000000 and TNOM = 27.000000


No. of Data Rows : 1
Reset re-loads circuit * tb_fb_mc.spice — monte carlo mismatch analysis (200 runs)

Circuit: * tb_fb_mc.spice — monte carlo mismatch analysis (200 runs)

Doing analysis at TEMP = 27.000000 and TNOM = 27.000000


No. of Data Rows : 1
Reset re-loads circuit * tb_fb_mc.spice — monte carlo mismatch analysis (200 runs)

Circuit: * tb_fb_mc.spice — monte carlo mismatch analysis (200 runs)

Doing analysis at TEMP = 27.000000 and TUsing SPARSE 1.3 as Direct Linear Solver
Using SPARSE 1.3 as Direct Linear Solver
Using SPARSE 1.3 as Direct Linear Solver
Using SPARSE 1.3 as Direct Linear Solver
Using SPARSE 1.3 as Direct Linear Solver
Using SPARSE 1.3 as Direct Linear Solver
Using SPARSE 1.3 as Direct Linear Solver
Using SPARSE 1.3 as Direct Linear Solver
Using SPARSE 1.3 as Direct Linear Solver
Using SPARSE 1.3 as Direct Linear Solver
Using SPARSE 1.3 as Direct Linear Solver
Using SPARSE 1.3 as Direct Linear Solver
Using SPARSE 1.3 as Direct Linear Solver
Using SPARSE 1.3 as Direct Linear Solver
Using SPARSE 1.3 as Direct Linear Solver
Using SPARSE 1.3 as Direct Linear Solver
Using SPARSE 1.3 as Direct Linear Solver
Using SPARSE 1.3 as Direct Linear Solver
NOM = 27.000000


No. of Data Rows : 1
Reset re-loads circuit * tb_fb_mc.spice — monte carlo mismatch analysis (200 runs)

Circuit: * tb_fb_mc.spice — monte carlo mismatch analysis (200 runs)

Doing analysis at TEMP = 27.000000 and TNOM = 27.000000


No. of Data Rows : 1
Reset re-loads circuit * tb_fb_mc.spice — monte carlo mismatch analysis (200 runs)

Circuit: * tb_fb_mc.spice — monte carlo mismatch analysis (200 runs)

Doing analysis at TEMP = 27.000000 and TNOM = 27.000000


No. of Data Rows : 1
Reset re-loads circuit * tb_fb_mc.spice — monte carlo mismatch analysis (200 runs)

Circuit: * tb_fb_mc.spice — monte carlo mismatch analysis (200 runs)

Doing analysis at TEMP = 27.000000 and TNOM = 27.000000


No. of Data Rows : 1
Reset re-loads circuit * tb_fb_mc.spice — monte carlo mismatch analysis (200 runs)

Circuit: * tb_fb_mc.spice — monte carlo mismatch analysis (200 runs)

Doing analysis at TEMP = 27.000000 and TNOM = 27.000000


No. of Data Rows : 1
Reset re-loads circuit * tb_fb_mc.spice — monte carlo mismatch analysis (200 runs)

Circuit: * tb_fb_mc.spice — monte carlo mismatch analysis (200 runs)

Doing analysis at TEMP = 27.000000 and TNOM = 27.000000


No. of Data Rows : 1
Reset re-loads circuit * tb_fb_mc.spice — monte carlo mismatch analysis (200 runs)

Circuit: * tb_fb_mc.spice — monte carlo mismatch analysis (200 runs)

Doing analysis at TEMP = 27.000000 and TNOM = 27.000000


No. of Data Rows : 1
Reset re-loads circuit * tb_fb_mc.spice — monte carlo mismatch analysis (200 runs)

Circuit: * tb_fb_mc.spice — monte carlo mismatch analysis (200 runs)

Doing analysis at TEMP = 27.000000 and TNOM = 27.000000


No. of Data Rows : 1
Reset re-loads circuit * tb_fb_mc.spice — monte carlo mismatch analysis (200 runs)

Circuit: * tb_fb_mc.spice — monte carlo mismatch analysis (200 runs)

Doing analysis at TEMP = 27.000000 and TNOM = 27.000000


No. of Data Rows : 1
Reset re-loads circuit * tb_fb_mc.spice — monte carlo mismatch analysis (200 runs)

Circuit: * tb_fb_mc.spice — monte carlo mismatch analysis (200 runs)

Doing analysis at TEMP = 27.000000 and TNOM = 27.000000


No. of Data Rows : 1
Reset re-loads circuit * tb_fb_mc.spice — monte carlo mismatch analysis (200 runs)

Circuit: * tb_fb_mc.spice — monte carlo mismatch analysis (200 runs)

Doing analysis at TEMP = 27.000000 and TNOM = 27.000000


No. of Data Rows : 1
Reset re-loads circuit * tb_fb_mc.spice — monte carlo mismatch analysis (200 runs)

Circuit: * tb_fb_mc.spice — monte carlo mismatch analysis (200 runs)

Doing analysis at TEMP = 27.000000 and TNOM = 27.000000


No. of Data Rows : 1
Reset re-loads circuit * tb_fb_mc.spice — monte carlo mismatch analysis (200 runs)

Circuit: * tb_fb_mc.spice — monte carlo mismatch analysis (200 runs)

Doing analysis at TEMP = 27.000000 and TNOM = 27.000000


No. of Data Rows : 1
Reset re-loads circuit * tb_fb_mc.spice — monte carlo mismatch analysis (200 runs)

Circuit: * tb_fb_mc.spice — monte carlo mismatch analysis (200 runs)

Doing analysis at TEMP = 27.000000 and TNOM = 27.000000


No. of Data Rows : 1
Reset re-loads circuit * tb_fb_mc.spice — monte carlo mismatch analysis (200 runs)

Circuit: * tb_fb_mc.spice — monte carlo mismatch analysis (200 runs)

Doing analysis at TEMP = 27.000000 and TNOM = 27.000000


No. of Data Rows : 1
Reset re-loads circuit * tb_fb_mc.spice — monte carlo mismatch analysis (200 runs)

Circuit: * tb_fb_mc.spice — monte carlo mismatch analysis (200 runs)

Doing analysis at TEMP = 27.000000 and TNOM = 27.000000


No. of Data Rows : 1
Reset re-loads circuit * tb_fb_mc.spice — monte carlo mismatch analysis (200 runs)

Circuit: * tb_fb_mc.spice — monte carlo mismatch analysis (200 runs)

Doing analysis at TEMP = 27.000000 and TNOM = 27.000000


No. of Data Rows : 1
Reset re-loads circuit * tb_fb_mc.spice — monte carlo mismatch analysis (200 runs)

Circuit: * tb_fb_mc.spice — monte carlo mismatch analysis (200 runs)

Doing analysis at TEMP = 27.000000 and TNOM = 27.000000


No. of Data Rows : 1
Reset re-loads circuit * tb_Using SPARSE 1.3 as Direct Linear Solver
Using SPARSE 1.3 as Direct Linear Solver
Using SPARSE 1.3 as Direct Linear Solver
Using SPARSE 1.3 as Direct Linear Solver
Using SPARSE 1.3 as Direct Linear Solver
Using SPARSE 1.3 as Direct Linear Solver
Using SPARSE 1.3 as Direct Linear Solver
Using SPARSE 1.3 as Direct Linear Solver
Using SPARSE 1.3 as Direct Linear Solver
Using SPARSE 1.3 as Direct Linear Solver
Using SPARSE 1.3 as Direct Linear Solver
Using SPARSE 1.3 as Direct Linear Solver
Using SPARSE 1.3 as Direct Linear Solver
Using SPARSE 1.3 as Direct Linear Solver
Using SPARSE 1.3 as Direct Linear Solver
Using SPARSE 1.3 as Direct Linear Solver
Using SPARSE 1.3 as Direct Linear Solver
fb_mc.spice — monte carlo mismatch analysis (200 runs)

Circuit: * tb_fb_mc.spice — monte carlo mismatch analysis (200 runs)

Doing analysis at TEMP = 27.000000 and TNOM = 27.000000


No. of Data Rows : 1
Reset re-loads circuit * tb_fb_mc.spice — monte carlo mismatch analysis (200 runs)

Circuit: * tb_fb_mc.spice — monte carlo mismatch analysis (200 runs)

Doing analysis at TEMP = 27.000000 and TNOM = 27.000000


No. of Data Rows : 1
Reset re-loads circuit * tb_fb_mc.spice — monte carlo mismatch analysis (200 runs)

Circuit: * tb_fb_mc.spice — monte carlo mismatch analysis (200 runs)

Doing analysis at TEMP = 27.000000 and TNOM = 27.000000


No. of Data Rows : 1
Reset re-loads circuit * tb_fb_mc.spice — monte carlo mismatch analysis (200 runs)

Circuit: * tb_fb_mc.spice — monte carlo mismatch analysis (200 runs)

Doing analysis at TEMP = 27.000000 and TNOM = 27.000000


No. of Data Rows : 1
Reset re-loads circuit * tb_fb_mc.spice — monte carlo mismatch analysis (200 runs)

Circuit: * tb_fb_mc.spice — monte carlo mismatch analysis (200 runs)

Doing analysis at TEMP = 27.000000 and TNOM = 27.000000


No. of Data Rows : 1
Reset re-loads circuit * tb_fb_mc.spice — monte carlo mismatch analysis (200 runs)

Circuit: * tb_fb_mc.spice — monte carlo mismatch analysis (200 runs)

Doing analysis at TEMP = 27.000000 and TNOM = 27.000000


No. of Data Rows : 1
Reset re-loads circuit * tb_fb_mc.spice — monte carlo mismatch analysis (200 runs)

Circuit: * tb_fb_mc.spice — monte carlo mismatch analysis (200 runs)

Doing analysis at TEMP = 27.000000 and TNOM = 27.000000


No. of Data Rows : 1
Reset re-loads circuit * tb_fb_mc.spice — monte carlo mismatch analysis (200 runs)

Circuit: * tb_fb_mc.spice — monte carlo mismatch analysis (200 runs)

Doing analysis at TEMP = 27.000000 and TNOM = 27.000000


No. of Data Rows : 1
Reset re-loads circuit * tb_fb_mc.spice — monte carlo mismatch analysis (200 runs)

Circuit: * tb_fb_mc.spice — monte carlo mismatch analysis (200 runs)

Doing analysis at TEMP = 27.000000 and TNOM = 27.000000


No. of Data Rows : 1
Reset re-loads circuit * tb_fb_mc.spice — monte carlo mismatch analysis (200 runs)

Circuit: * tb_fb_mc.spice — monte carlo mismatch analysis (200 runs)

Doing analysis at TEMP = 27.000000 and TNOM = 27.000000


No. of Data Rows : 1
Reset re-loads circuit * tb_fb_mc.spice — monte carlo mismatch analysis (200 runs)

Circuit: * tb_fb_mc.spice — monte carlo mismatch analysis (200 runs)

Doing analysis at TEMP = 27.000000 and TNOM = 27.000000


No. of Data Rows : 1
Reset re-loads circuit * tb_fb_mc.spice — monte carlo mismatch analysis (200 runs)

Circuit: * tb_fb_mc.spice — monte carlo mismatch analysis (200 runs)

Doing analysis at TEMP = 27.000000 and TNOM = 27.000000


No. of Data Rows : 1
Reset re-loads circuit * tb_fb_mc.spice — monte carlo mismatch analysis (200 runs)

Circuit: * tb_fb_mc.spice — monte carlo mismatch analysis (200 runs)

Doing analysis at TEMP = 27.000000 and TNOM = 27.000000


No. of Data Rows : 1
Reset re-loads circuit * tb_fb_mc.spice — monte carlo mismatch analysis (200 runs)

Circuit: * tb_fb_mc.spice — monte carlo mismatch analysis (200 runs)

Doing analysis at TEMP = 27.000000 and TNOM = 27.000000


No. of Data Rows : 1
Reset re-loads circuit * tb_fb_mc.spice — monte carlo mismatch analysis (200 runs)

Circuit: * tb_fb_mc.spice — monte carlo mismatch analysis (200 runs)

Doing analysis at TEMP = 27.000000 and TNOM = 27.000000


No. of Data Rows : 1
Reset re-loads circuit * tb_fb_mc.spice — monte carlo mismatch analysis (200 runs)

Circuit: * tb_fb_mc.spice — monte carlo mismatch analysis (200 runs)

Doing analysis at TEMP = 27.000000 and TNOM = 27.000000


No. of Data Rows : 1
Reset re-loads circuit * tb_fb_mc.spice — monte carlo mismatch analysis (200 runs)

Circuit: * tb_fb_mc.spice — monte carlo mismatch analysis (200 runs)

Doing analysis at TEMP = 27.000000 and TNOM = 27.000000


No. of Data Rows : 1
Reset re-loads circuit * tb_fb_mc.spice — monte carlo mismatch analysis (200 runs)

Circuit: Using SPARSE 1.3 as Direct Linear Solver
Using SPARSE 1.3 as Direct Linear Solver
Using SPARSE 1.3 as Direct Linear Solver
Using SPARSE 1.3 as Direct Linear Solver
Using SPARSE 1.3 as Direct Linear Solver
Using SPARSE 1.3 as Direct Linear Solver
Using SPARSE 1.3 as Direct Linear Solver
Using SPARSE 1.3 as Direct Linear Solver
Using SPARSE 1.3 as Direct Linear Solver
Using SPARSE 1.3 as Direct Linear Solver
Using SPARSE 1.3 as Direct Linear Solver
Using SPARSE 1.3 as Direct Linear Solver
Using SPARSE 1.3 as Direct Linear Solver
Using SPARSE 1.3 as Direct Linear Solver
Using SPARSE 1.3 as Direct Linear Solver
Using SPARSE 1.3 as Direct Linear Solver
Using SPARSE 1.3 as Direct Linear Solver
* tb_fb_mc.spice — monte carlo mismatch analysis (200 runs)

Doing analysis at TEMP = 27.000000 and TNOM = 27.000000


No. of Data Rows : 1
Reset re-loads circuit * tb_fb_mc.spice — monte carlo mismatch analysis (200 runs)

Circuit: * tb_fb_mc.spice — monte carlo mismatch analysis (200 runs)

Doing analysis at TEMP = 27.000000 and TNOM = 27.000000


No. of Data Rows : 1
Reset re-loads circuit * tb_fb_mc.spice — monte carlo mismatch analysis (200 runs)

Circuit: * tb_fb_mc.spice — monte carlo mismatch analysis (200 runs)

Doing analysis at TEMP = 27.000000 and TNOM = 27.000000


No. of Data Rows : 1
Reset re-loads circuit * tb_fb_mc.spice — monte carlo mismatch analysis (200 runs)

Circuit: * tb_fb_mc.spice — monte carlo mismatch analysis (200 runs)

Doing analysis at TEMP = 27.000000 and TNOM = 27.000000


No. of Data Rows : 1
Reset re-loads circuit * tb_fb_mc.spice — monte carlo mismatch analysis (200 runs)

Circuit: * tb_fb_mc.spice — monte carlo mismatch analysis (200 runs)

Doing analysis at TEMP = 27.000000 and TNOM = 27.000000


No. of Data Rows : 1
Reset re-loads circuit * tb_fb_mc.spice — monte carlo mismatch analysis (200 runs)

Circuit: * tb_fb_mc.spice — monte carlo mismatch analysis (200 runs)

Doing analysis at TEMP = 27.000000 and TNOM = 27.000000


No. of Data Rows : 1
Reset re-loads circuit * tb_fb_mc.spice — monte carlo mismatch analysis (200 runs)

Circuit: * tb_fb_mc.spice — monte carlo mismatch analysis (200 runs)

Doing analysis at TEMP = 27.000000 and TNOM = 27.000000


No. of Data Rows : 1
Reset re-loads circuit * tb_fb_mc.spice — monte carlo mismatch analysis (200 runs)

Circuit: * tb_fb_mc.spice — monte carlo mismatch analysis (200 runs)

Doing analysis at TEMP = 27.000000 and TNOM = 27.000000


No. of Data Rows : 1
Reset re-loads circuit * tb_fb_mc.spice — monte carlo mismatch analysis (200 runs)

Circuit: * tb_fb_mc.spice — monte carlo mismatch analysis (200 runs)

Doing analysis at TEMP = 27.000000 and TNOM = 27.000000


No. of Data Rows : 1
Reset re-loads circuit * tb_fb_mc.spice — monte carlo mismatch analysis (200 runs)

Circuit: * tb_fb_mc.spice — monte carlo mismatch analysis (200 runs)

Doing analysis at TEMP = 27.000000 and TNOM = 27.000000


No. of Data Rows : 1
Reset re-loads circuit * tb_fb_mc.spice — monte carlo mismatch analysis (200 runs)

Circuit: * tb_fb_mc.spice — monte carlo mismatch analysis (200 runs)

Doing analysis at TEMP = 27.000000 and TNOM = 27.000000


No. of Data Rows : 1
Reset re-loads circuit * tb_fb_mc.spice — monte carlo mismatch analysis (200 runs)

Circuit: * tb_fb_mc.spice — monte carlo mismatch analysis (200 runs)

Doing analysis at TEMP = 27.000000 and TNOM = 27.000000


No. of Data Rows : 1
Reset re-loads circuit * tb_fb_mc.spice — monte carlo mismatch analysis (200 runs)

Circuit: * tb_fb_mc.spice — monte carlo mismatch analysis (200 runs)

Doing analysis at TEMP = 27.000000 and TNOM = 27.000000


No. of Data Rows : 1
Reset re-loads circuit * tb_fb_mc.spice — monte carlo mismatch analysis (200 runs)

Circuit: * tb_fb_mc.spice — monte carlo mismatch analysis (200 runs)

Doing analysis at TEMP = 27.000000 and TNOM = 27.000000


No. of Data Rows : 1
Reset re-loads circuit * tb_fb_mc.spice — monte carlo mismatch analysis (200 runs)

Circuit: * tb_fb_mc.spice — monte carlo mismatch analysis (200 runs)

Doing analysis at TEMP = 27.000000 and TNOM = 27.000000


No. of Data Rows : 1
Reset re-loads circuit * tb_fb_mc.spice — monte carlo mismatch analysis (200 runs)

Circuit: * tb_fb_mc.spice — monte carlo mismatch analysis (200 runs)

Doing analysis at TEMP = 27.000000 and TNOM = 27.000000


No. of Data Rows : 1
Reset re-loads circuit * tb_fb_mc.spice — monte carlo mismatch analysis (200 runs)

Circuit: * tb_fb_mc.spice — monte carlo mismatch analysis (200 runs)

Doing analysis at TEMP = 27.000000 and TNOM = 27.000000


No. of Data Rows : 1
Reset re-loads circuit * tb_fb_mc.spice — monte carlo mismatch analysis (200 runs)

Circuit: * tb_fb_mc.spice — monte carlo mismatch analysis (200 runs)

DoinUsing SPARSE 1.3 as Direct Linear Solver
Using SPARSE 1.3 as Direct Linear Solver
Using SPARSE 1.3 as Direct Linear Solver
Using SPARSE 1.3 as Direct Linear Solver
Using SPARSE 1.3 as Direct Linear Solver
Using SPARSE 1.3 as Direct Linear Solver
Using SPARSE 1.3 as Direct Linear Solver
Using SPARSE 1.3 as Direct Linear Solver
Using SPARSE 1.3 as Direct Linear Solver
Using SPARSE 1.3 as Direct Linear Solver
Using SPARSE 1.3 as Direct Linear Solver
Using SPARSE 1.3 as Direct Linear Solver
Using SPARSE 1.3 as Direct Linear Solver
Using SPARSE 1.3 as Direct Linear Solver
Using SPARSE 1.3 as Direct Linear Solver
Using SPARSE 1.3 as Direct Linear Solver
Using SPARSE 1.3 as Direct Linear Solver
Using SPARSE 1.3 as Direct Linear Solver
g analysis at TEMP = 27.000000 and TNOM = 27.000000


No. of Data Rows : 1
Reset re-loads circuit * tb_fb_mc.spice — monte carlo mismatch analysis (200 runs)

Circuit: * tb_fb_mc.spice — monte carlo mismatch analysis (200 runs)

Doing analysis at TEMP = 27.000000 and TNOM = 27.000000


No. of Data Rows : 1
Reset re-loads circuit * tb_fb_mc.spice — monte carlo mismatch analysis (200 runs)

Circuit: * tb_fb_mc.spice — monte carlo mismatch analysis (200 runs)

Doing analysis at TEMP = 27.000000 and TNOM = 27.000000


No. of Data Rows : 1
Reset re-loads circuit * tb_fb_mc.spice — monte carlo mismatch analysis (200 runs)

Circuit: * tb_fb_mc.spice — monte carlo mismatch analysis (200 runs)

Doing analysis at TEMP = 27.000000 and TNOM = 27.000000


No. of Data Rows : 1
Reset re-loads circuit * tb_fb_mc.spice — monte carlo mismatch analysis (200 runs)

Circuit: * tb_fb_mc.spice — monte carlo mismatch analysis (200 runs)

Doing analysis at TEMP = 27.000000 and TNOM = 27.000000


No. of Data Rows : 1
Reset re-loads circuit * tb_fb_mc.spice — monte carlo mismatch analysis (200 runs)

Circuit: * tb_fb_mc.spice — monte carlo mismatch analysis (200 runs)

Doing analysis at TEMP = 27.000000 and TNOM = 27.000000


No. of Data Rows : 1
Reset re-loads circuit * tb_fb_mc.spice — monte carlo mismatch analysis (200 runs)

Circuit: * tb_fb_mc.spice — monte carlo mismatch analysis (200 runs)

Doing analysis at TEMP = 27.000000 and TNOM = 27.000000


No. of Data Rows : 1
Reset re-loads circuit * tb_fb_mc.spice — monte carlo mismatch analysis (200 runs)

Circuit: * tb_fb_mc.spice — monte carlo mismatch analysis (200 runs)

Doing analysis at TEMP = 27.000000 and TNOM = 27.000000


No. of Data Rows : 1
Reset re-loads circuit * tb_fb_mc.spice — monte carlo mismatch analysis (200 runs)

Circuit: * tb_fb_mc.spice — monte carlo mismatch analysis (200 runs)

Doing analysis at TEMP = 27.000000 and TNOM = 27.000000


No. of Data Rows : 1
Reset re-loads circuit * tb_fb_mc.spice — monte carlo mismatch analysis (200 runs)

Circuit: * tb_fb_mc.spice — monte carlo mismatch analysis (200 runs)

Doing analysis at TEMP = 27.000000 and TNOM = 27.000000


No. of Data Rows : 1
Reset re-loads circuit * tb_fb_mc.spice — monte carlo mismatch analysis (200 runs)

Circuit: * tb_fb_mc.spice — monte carlo mismatch analysis (200 runs)

Doing analysis at TEMP = 27.000000 and TNOM = 27.000000


No. of Data Rows : 1
Reset re-loads circuit * tb_fb_mc.spice — monte carlo mismatch analysis (200 runs)

Circuit: * tb_fb_mc.spice — monte carlo mismatch analysis (200 runs)

Doing analysis at TEMP = 27.000000 and TNOM = 27.000000


No. of Data Rows : 1
Reset re-loads circuit * tb_fb_mc.spice — monte carlo mismatch analysis (200 runs)

Circuit: * tb_fb_mc.spice — monte carlo mismatch analysis (200 runs)

Doing analysis at TEMP = 27.000000 and TNOM = 27.000000


No. of Data Rows : 1
Reset re-loads circuit * tb_fb_mc.spice — monte carlo mismatch analysis (200 runs)

Circuit: * tb_fb_mc.spice — monte carlo mismatch analysis (200 runs)

Doing analysis at TEMP = 27.000000 and TNOM = 27.000000


No. of Data Rows : 1
Reset re-loads circuit * tb_fb_mc.spice — monte carlo mismatch analysis (200 runs)

Circuit: * tb_fb_mc.spice — monte carlo mismatch analysis (200 runs)

Doing analysis at TEMP = 27.000000 and TNOM = 27.000000


No. of Data Rows : 1
Reset re-loads circuit * tb_fb_mc.spice — monte carlo mismatch analysis (200 runs)

Circuit: * tb_fb_mc.spice — monte carlo mismatch analysis (200 runs)

Doing analysis at TEMP = 27.000000 and TNOM = 27.000000


No. of Data Rows : 1
Reset re-loads circuit * tb_fb_mc.spice — monte carlo mismatch analysis (200 runs)

Circuit: * tb_fb_mc.spice — monte carlo mismatch analysis (200 runs)

Doing analysis at TEMP = 27.000000 and TNOM = 27.000000


No. of Data Rows : 1
Reset re-loads circuit * tb_fb_mc.spice — monte carlo mismatch analysis (200 runs)

Circuit: * tb_fb_mc.spice — monte carlo mismatch analysis (200 runs)

Doing analysis at TEMP = 27.000000 and TNOM = 27.000000


No. of Data RUsing SPARSE 1.3 as Direct Linear Solver
Using SPARSE 1.3 as Direct Linear Solver
Using SPARSE 1.3 as Direct Linear Solver
Using SPARSE 1.3 as Direct Linear Solver
Using SPARSE 1.3 as Direct Linear Solver
Using SPARSE 1.3 as Direct Linear Solver
Using SPARSE 1.3 as Direct Linear Solver
Using SPARSE 1.3 as Direct Linear Solver
Using SPARSE 1.3 as Direct Linear Solver
Using SPARSE 1.3 as Direct Linear Solver
Using SPARSE 1.3 as Direct Linear Solver
ows : 1
Reset re-loads circuit * tb_fb_mc.spice — monte carlo mismatch analysis (200 runs)

Circuit: * tb_fb_mc.spice — monte carlo mismatch analysis (200 runs)

Doing analysis at TEMP = 27.000000 and TNOM = 27.000000


No. of Data Rows : 1
Reset re-loads circuit * tb_fb_mc.spice — monte carlo mismatch analysis (200 runs)

Circuit: * tb_fb_mc.spice — monte carlo mismatch analysis (200 runs)

Doing analysis at TEMP = 27.000000 and TNOM = 27.000000


No. of Data Rows : 1
Reset re-loads circuit * tb_fb_mc.spice — monte carlo mismatch analysis (200 runs)

Circuit: * tb_fb_mc.spice — monte carlo mismatch analysis (200 runs)

Doing analysis at TEMP = 27.000000 and TNOM = 27.000000


No. of Data Rows : 1
Reset re-loads circuit * tb_fb_mc.spice — monte carlo mismatch analysis (200 runs)

Circuit: * tb_fb_mc.spice — monte carlo mismatch analysis (200 runs)

Doing analysis at TEMP = 27.000000 and TNOM = 27.000000


No. of Data Rows : 1
Reset re-loads circuit * tb_fb_mc.spice — monte carlo mismatch analysis (200 runs)

Circuit: * tb_fb_mc.spice — monte carlo mismatch analysis (200 runs)

Doing analysis at TEMP = 27.000000 and TNOM = 27.000000


No. of Data Rows : 1
Reset re-loads circuit * tb_fb_mc.spice — monte carlo mismatch analysis (200 runs)

Circuit: * tb_fb_mc.spice — monte carlo mismatch analysis (200 runs)

Doing analysis at TEMP = 27.000000 and TNOM = 27.000000


No. of Data Rows : 1
Reset re-loads circuit * tb_fb_mc.spice — monte carlo mismatch analysis (200 runs)

Circuit: * tb_fb_mc.spice — monte carlo mismatch analysis (200 runs)

Doing analysis at TEMP = 27.000000 and TNOM = 27.000000


No. of Data Rows : 1
Reset re-loads circuit * tb_fb_mc.spice — monte carlo mismatch analysis (200 runs)

Circuit: * tb_fb_mc.spice — monte carlo mismatch analysis (200 runs)

Doing analysis at TEMP = 27.000000 and TNOM = 27.000000


No. of Data Rows : 1
Reset re-loads circuit * tb_fb_mc.spice — monte carlo mismatch analysis (200 runs)

Circuit: * tb_fb_mc.spice — monte carlo mismatch analysis (200 runs)

Doing analysis at TEMP = 27.000000 and TNOM = 27.000000


No. of Data Rows : 1
Reset re-loads circuit * tb_fb_mc.spice — monte carlo mismatch analysis (200 runs)

Circuit: * tb_fb_mc.spice — monte carlo mismatch analysis (200 runs)

Doing analysis at TEMP = 27.000000 and TNOM = 27.000000


No. of Data Rows : 1
Reset re-loads circuit * tb_fb_mc.spice — monte carlo mismatch analysis (200 runs)

Circuit: * tb_fb_mc.spice — monte carlo mismatch analysis (200 runs)

Doing analysis at TEMP = 27.000000 and TNOM = 27.000000


No. of Data Rows : 1
=== Monte Carlo Mismatch (200 runs, TT 27C) ===
mc_vfb_mean_V: 1.22588
mc_vfb_std_mV: 0.00263115
mc_vfb_min_V: 1.21948
mc_vfb_max_V: 1.23246
mc_vfb_3sigma_mV: 7.89345
ngspice-42 done
