=== Block 02: Feedback Network ===
Run started: Sat Mar 28 23:27:07 UTC 2026

--- Running tb_fb_dc_ratio.spice ---
Using SPARSE 1.3 as Direct Linear Solver

Note: No compatibility mode selected!


Circuit: * tb_fb_dc_ratio.spice — dc ratio and divider current measurement

Doing analysis at TEMP = 27.000000 and TNOM = 27.000000


No. of Data Rows : 1
=== DC Ratio Test (TT 27C, PVDD=5.0V) ===
vfb_V: 1.226
ratio: 0.245201
divider_current_uA: 10.3466
vfb_error_mV: 0.00367765
ngspice-42 done

--- Running tb_fb_temp.spice ---
Using SPARSE 1.3 as Direct Linear Solver
Using SPARSE 1.3 as Direct Linear Solver
Using SPARSE 1.3 as Direct Linear Solver
Using SPARSE 1.3 as Direct Linear Solver
Using SPARSE 1.3 as Direct Linear Solver
Using SPARSE 1.3 as Direct Linear Solver
Using SPARSE 1.3 as Direct Linear Solver

Note: No compatibility mode selected!


Circuit: * tb_fb_temp.spice — vfb vs temperature sweep (-40 to 150°c)

=== Temperature Sweep (-40 to 150C, TT) ===
Doing analysis at TEMP = -40.000000 and TNOM = 27.000000


No. of Data Rows : 1
vfb_m40c_V: 1.22595
Doing analysis at TEMP = 0.000000 and TNOM = 27.000000


No. of Data Rows : 1
vfb_0c_V: 1.22599
Doing analysis at TEMP = 27.000000 and TNOM = 27.000000


No. of Data Rows : 1
vfb_27c_V: 1.226
Doing analysis at TEMP = 50.000000 and TNOM = 27.000000


No. of Data Rows : 1
vfb_50c_V: 1.22601
Doing analysis at TEMP = 85.000000 and TNOM = 27.000000


No. of Data Rows : 1
vfb_85c_V: 1.22601
Doing analysis at TEMP = 125.000000 and TNOM = 27.000000


No. of Data Rows : 1
vfb_125c_V: 1.22598
Doing analysis at TEMP = 150.000000 and TNOM = 27.000000


No. of Data Rows : 1
vfb_150c_V: 1.22594
vfb_temp_drift_mV: 0.07
ngspice-42 done

--- Running tb_fb_corners.spice ---
Using SPARSE 1.3 as Direct Linear Solver
Using SPARSE 1.3 as Direct Linear Solver
Using SPARSE 1.3 as Direct Linear Solver

Note: No compatibility mode selected!


Circuit: * tb_fb_corners.spice — vfb across process corners

=== Process Corner Analysis ===
Doing analysis at TEMP = 27.000000 and TNOM = 27.000000


No. of Data Rows : 1
vfb_tt_V: 1.226
Reset re-loads circuit * tb_fb_corners.spice — vfb across process corners

Circuit: * tb_fb_corners.spice — vfb across process corners

Doing analysis at TEMP = 27.000000 and TNOM = 27.000000


No. of Data Rows : 1
vfb_ss_V: 1.226
Reset re-loads circuit * tb_fb_corners.spice — vfb across process corners

Circuit: * tb_fb_corners.spice — vfb across process corners

Doing analysis at TEMP = 27.000000 and TNOM = 27.000000


No. of Data Rows : 1
vfb_ff_V: 1.226
drift_ss_mV: 0
drift_ff_mV: 0
vfb_corner_drift_mV: 0
ngspice-42 done

--- Running tb_fb_noise.spice ---
Using SPARSE 1.3 as Direct Linear Solver

Note: No compatibility mode selected!


Circuit: * tb_fb_noise.spice — noise at vfb node

Doing analysis at TEMP = 27.000000 and TNOM = 27.000000


No. of Data Rows : 1
=== Resistance Values ===
R_TOP_ohm: 364757
R_BOT_ohm: 118493
R_total_ohm: 483251
R_parallel_ohm: 89438.7
=== Noise Analysis (TT 27C, analytical) ===
noise_vfb_uVrms: 38.4935
ngspice-42 done

--- Evaluation ---
---
* vfb_error_mV                       0.003678  mV        (spec <= 1.0)  PASS
  vfb_temp_drift_mV                      0.07  mV        (spec <= 5.0)  PASS
  vfb_corner_drift_mV                       0  mV        (spec <= 10.0)  PASS
  divider_current_uA                    10.35  uA        (spec >= 10.0)  PASS
  divider_current_uA_max                10.35  uA        (spec <= 15.0)  PASS
  noise_vfb_uVrms                       38.49  uVrms     (spec <= 50.0)  PASS
specs_pass: 6/6
primary (vfb_error_mV): 0.00367765

Run finished: Sat Mar 28 23:27:07 UTC 2026
