=== Block 07: Zener Clamp ===
Run started: Sun Mar 29 15:27:22 UTC 2026

--- Running tb_zc_iv.spice ---
Using SPARSE 1.3 as Direct Linear Solver

Note: No compatibility mode selected!


Circuit: * tb_zc_iv.spice — dc i-v characteristic, clamp onset, leakage

Doing analysis at TEMP = 27.000000 and TNOM = 27.000000

 Reference value :  0.00000e+00
No. of Data Rows : 1601
leakage_at_5v_nA: 234.693
leakage_at_5p17v_nA: 343.062
clamp_onset_1mA_V: 6.295
clamp_at_10mA_V: 6.5
ngspice-42 done

--- Running tb_zc_temp.spice ---
Using SPARSE 1.3 as Direct Linear Solver

Note: No compatibility mode selected!


Circuit: * tb_zc_temp.spice — temperature sweep: i-v at -40c, 27c, 85c, 150c

Doing analysis at TEMP = -40.000000 and TNOM = 27.000000

 Reference value :  0.00000e+00Warning from checkvalid: vector run_idx is not available or has zero length.
Error: RHS "run_idx + 1" invalid
Using SPARSE 1.3 as Direct Linear Solver
Warning from checkvalid: vector run_idx is not available or has zero length.
Error: RHS "run_idx + 1" invalid
Using SPARSE 1.3 as Direct Linear Solver

No. of Data Rows : 1601
temp_$t_onset_1mA_V: 7.005
Doing analysis at TEMP = 27.000000 and TNOM = 27.000000


No. of Data Rows : 1601
temp_$t_onset_1mA_V: 6.295
Doing analysis at TEMP = 85.000000 and TNOM = 27.000000

 Reference value :  0.00000e+00Warning from checkvalid: vector run_idx is not available or has zero length.
Error: RHS "run_idx + 1" invalid
Using SPARSE 1.3 as Direct Linear Solver
Warning from checkvalid: vector run_idx is not available or has zero length.
Error: RHS "run_idx + 1" invalid
Using SPARSE 1.3 as Direct Linear Solver

No. of Data Rows : 1601
temp_$t_onset_1mA_V: 5.67
Doing analysis at TEMP = 150.000000 and TNOM = 27.000000


No. of Data Rows : 1601
temp_$t_onset_1mA_V: 4.945
Doing analysis at TEMP = 150.000000 and TNOM = 27.000000

 Reference value :  0.00000e+00Using SPARSE 1.3 as Direct Linear Solver

No. of Data Rows : 1601
clamp_onset_150c_V: 4.945
Doing analysis at TEMP = -40.000000 and TNOM = 27.000000


No. of Data Rows : 1601
clamp_onset_m40c_V: 7.005
ngspice-42 done

--- Running tb_zc_transient.spice ---
Using SPARSE 1.3 as Direct Linear Solver

Note: No compatibility mode selected!


Circuit: * tb_zc_transient.spice — transient clamping: 10v/us ramp, 200pf cload

Doing analysis at TEMP = 27.000000 and TNOM = 27.000000

Using transient initial conditions
 Reference value :  1.00000e-11Using SPARSE 1.3 as Direct Linear Solver
Error: no such vector time

No. of Data Rows : 3027
transient_peak_V: 7.6039
peak_current_mA: 2475.12
Doing analysis at TEMP = 27.000000 and TNOM = 27.000000


No. of Data Rows : 1
static_current_at_7V_mA: 118.263
ngspice-42 done

--- Running tb_zc_corners.spice ---
Using SPARSE 1.3 as Direct Linear Solver

Note: No compatibility mode selected!


Circuit: * tb_zc_corners.spice — process corner sweep: ss, tt, ff, sf, fs

Doing analysis at TEMP = 27.000000 and TNOM = 27.000000

 Reference value :  0.00000e+00
No. of Data Rows : 1601
corner_tt_onset_1mA_V: 6.295
ngspice-42 done

--- Running tb_zc_corner_ss.spice ---
Using SPARSE 1.3 as Direct Linear Solver

Note: No compatibility mode selected!


Circuit: * tb_zc_corner_ss.spice — ss corner clamp onset

Doing analysis at TEMP = 27.000000 and TNOM = 27.000000

 Reference value :  0.00000e+00
No. of Data Rows : 1601
corner_ss_onset_1mA_V: 6.835
ngspice-42 done

--- Running tb_zc_corner_ff.spice ---
Using SPARSE 1.3 as Direct Linear Solver

Note: No compatibility mode selected!


Circuit: * tb_zc_corner_ff.spice — ff corner clamp onset

Doing analysis at TEMP = 27.000000 and TNOM = 27.000000

 Reference value :  0.00000e+00
No. of Data Rows : 1601
corner_ff_onset_1mA_V: 5.75
ngspice-42 done

--- Running tb_zc_corner_sf.spice ---
Using SPARSE 1.3 as Direct Linear Solver

Note: No compatibility mode selected!


Circuit: * tb_zc_corner_sf.spice — sf corner clamp onset

Doing analysis at TEMP = 27.000000 and TNOM = 27.000000

 Reference value :  0.00000e+00
No. of Data Rows : 1601
corner_sf_onset_1mA_V: 5.525
ngspice-42 done

--- Running tb_zc_corner_fs.spice ---
Using SPARSE 1.3 as Direct Linear Solver

Note: No compatibility mode selected!


Circuit: * tb_zc_corner_fs.spice — fs corner clamp onset

Doing analysis at TEMP = 27.000000 and TNOM = 27.000000

 Reference value :  0.00000e+00
No. of Data Rows : 1601
corner_fs_onset_1mA_V: 7.055
ngspice-42 done

--- Evaluation ---
---
* leakage_at_5v_nA                      234.7  nA        (spec <= 1000.0)  PASS
  clamp_onset_1mA_V                     6.295  V         (spec >= 5.5)  PASS
  clamp_onset_1mA_V_max                 6.295  V         (spec <= 6.2)  FAIL
  clamp_at_10mA_V                         6.5  V         (spec <= 6.5)  PASS
  leakage_at_5p17v_nA                   343.1  nA        (spec <= 5000.0)  PASS
  clamp_onset_150c_V                    4.945  V         (spec >= 5.0)  FAIL
  clamp_onset_m40c_V                    7.005  V         (spec <= 7.0)  FAIL
  transient_peak_V                      7.604  V         (spec <= 6.5)  FAIL
  peak_current_mA                        2475  mA        (spec >= 100.0)  PASS
specs_pass: 5/9
primary (leakage_at_5v_nA): 234.693

Run finished: Sun Mar 29 15:27:26 UTC 2026
