=== Block 07: Zener Clamp ===
Run started: Sun Mar 29 17:51:03 UTC 2026

--- Running tb_zc_iv.spice ---
Using SPARSE 1.3 as Direct Linear Solver

Note: No compatibility mode selected!


Circuit: * tb_zc_iv.spice — dc i-v characteristic, clamp onset, leakage

Doing analysis at TEMP = 27.000000 and TNOM = 27.000000

 Reference value :  0.00000e+00
No. of Data Rows : 1601
leakage_at_5v_nA: 514.59
leakage_at_5p17v_nA: 923.06
clamp_onset_1mA_V: 5.98
clamp_at_10mA_V: 6.205
ngspice-42 done

--- Running tb_zc_temp.spice ---
Using SPARSE 1.3 as Direct Linear Solver

Note: No compatibility mode selected!


Circuit: * tb_zc_temp.spice — temperature sweep: i-v at -40c, 27c, 85c, 150c

Doing analysis at TEMP = -40.000000 and TNOM = 27.000000

 Reference value :  0.00000e+00Using SPARSE 1.3 as Direct Linear Solver

No. of Data Rows : 1601
clamp_onset_m40c_V: 6.465
Doing analysis at TEMP = 27.000000 and TNOM = 27.000000

 Reference value :  2.28000e+00Using SPARSE 1.3 as Direct Linear Solver

No. of Data Rows : 1601
temp_27_onset_1mA_V: 5.98
Doing analysis at TEMP = 85.000000 and TNOM = 27.000000

 Reference value :  5.07500e+00Using SPARSE 1.3 as Direct Linear Solver

No. of Data Rows : 1601
Doing analysis at TEMP = 150.000000 and TNOM = 27.000000


No. of Data Rows : 1601
clamp_onset_150c_V: 5.02
ngspice-42 done

--- Running tb_zc_transient.spice ---
Using SPARSE 1.3 as Direct Linear Solver

Note: No compatibility mode selected!


Circuit: * tb_zc_transient.spice — transient clamping: 10v/us ramp, 200pf cload

Doing analysis at TEMP = 27.000000 and TNOM = 27.000000

Using transient initial conditions
 Reference value :  1.00000e-11
No. of Data Rows : 3044
transient_peak_V: 6.0602
peak_current_mA: 210.276
ngspice-42 done

--- Running tb_zc_corners.spice ---
Using SPARSE 1.3 as Direct Linear Solver

Note: No compatibility mode selected!


Circuit: * tb_zc_corners.spice — process corner sweep: ss, tt, ff, sf, fs

Doing analysis at TEMP = 27.000000 and TNOM = 27.000000

 Reference value :  0.00000e+00
No. of Data Rows : 1601
corner_tt_onset_1mA_V: 5.98
ngspice-42 done

--- Running tb_zc_corner_ss.spice ---
Using SPARSE 1.3 as Direct Linear Solver

Note: No compatibility mode selected!


Circuit: * tb_zc_corner_ss.spice — ss corner clamp onset

Doing analysis at TEMP = 27.000000 and TNOM = 27.000000

 Reference value :  0.00000e+00
No. of Data Rows : 1601
corner_ss_onset_1mA_V: 6.345
ngspice-42 done

--- Running tb_zc_corner_ff.spice ---
Using SPARSE 1.3 as Direct Linear Solver

Note: No compatibility mode selected!


Circuit: * tb_zc_corner_ff.spice — ff corner clamp onset

Doing analysis at TEMP = 27.000000 and TNOM = 27.000000

 Reference value :  0.00000e+00
No. of Data Rows : 1601
corner_ff_onset_1mA_V: 5.615
ngspice-42 done

--- Running tb_zc_corner_sf.spice ---
Using SPARSE 1.3 as Direct Linear Solver

Note: No compatibility mode selected!


Circuit: * tb_zc_corner_sf.spice — sf corner clamp onset

Doing analysis at TEMP = 27.000000 and TNOM = 27.000000

 Reference value :  0.00000e+00
No. of Data Rows : 1601
corner_sf_onset_1mA_V: 5.79
ngspice-42 done

--- Running tb_zc_corner_fs.spice ---
Using SPARSE 1.3 as Direct Linear Solver

Note: No compatibility mode selected!


Circuit: * tb_zc_corner_fs.spice — fs corner clamp onset

Doing analysis at TEMP = 27.000000 and TNOM = 27.000000

 Reference value :  0.00000e+00
No. of Data Rows : 1601
corner_fs_onset_1mA_V: 6.17
ngspice-42 done

--- Evaluation ---
---
* leakage_at_5v_nA                      514.6  nA        (spec <= 1000.0)  PASS
  clamp_onset_1mA_V                      5.98  V         (spec >= 5.5)  PASS
  clamp_onset_1mA_V_max                  5.98  V         (spec <= 6.2)  PASS
  clamp_at_10mA_V                       6.205  V         (spec <= 6.5)  PASS
  leakage_at_5p17v_nA                   923.1  nA        (spec <= 5000.0)  PASS
  clamp_onset_150c_V                     5.02  V         (spec >= 5.0)  PASS
  clamp_onset_m40c_V                    6.465  V         (spec <= 7.0)  PASS
  transient_peak_V                       6.06  V         (spec <= 6.5)  PASS
  peak_current_mA                       210.3  mA        (spec >= 100.0)  PASS
specs_pass: 9/9
primary (leakage_at_5v_nA): 514.59

Run finished: Sun Mar 29 17:51:08 UTC 2026
