=== Block 01: Pass Device ===
Run started: Fri Mar 27 23:56:53 UTC 2026

--- Running tb_pass_idvds.spice ---
Using SPARSE 1.3 as Direct Linear Solver
Using SPARSE 1.3 as Direct Linear Solver
Using SPARSE 1.3 as Direct Linear Solver

Note: No compatibility mode selected!


Circuit: * tb_pass_idvds.spice — id vs vds family curves, tt 27c

total_width_mm: 1.0
Doing analysis at TEMP = 27.000000 and TNOM = 27.000000


No. of Data Rows : 109
Doing analysis at TEMP = 27.000000 and TNOM = 27.000000


No. of Data Rows : 109
Doing analysis at TEMP = 27.000000 and TNOM = 27.000000


No. of Data Rows : 109
IdVds family curves complete
ngspice-42 done

--- Running tb_pass_idvgs.spice ---
Using SPARSE 1.3 as Direct Linear Solv ReUsing SPARSE 1.3 as Direct LiUsing SPARSE 1.3 as Direct Linear Solver

No. of Data Rows : 55
Doing analysis at TEMP = 27.000000 and TNOM = 27.000000

 Reference value :  5.40000e+00 Reference value :  4.10000e+00 Reference value :  2.70000e+00 Reference value :  1.30000e+00
No. of Data Rows : 55
Id vs Vds complete
Note: Simulation executed from .control section 

--- Running tb_pass_idvgs.spice ---
Using SPARSE 1.3 as Direct Linear Solver
Using SPARSE 1.3 as Direct Linear Solver

Note: No compatibility mode selected!


Circuit: * tb_pass_idvgs_ss150.spice — id vs vgs at dropout, ss 150c

Doing analysis at TEMP = 150.000000 and TNOM = 27.000000

 Reference value :  4.19000e+00
No. of Data Rows : 541
id_dropout_ss150: 56.8318
ngspice-42 done

Note: No compatibility mode selected!


Circuit: * tb_pass_idvgs.spice — id vs vgs at dropout, tt 27c

Doing analysis at TEMP = 27.000000 and TNOM = 27.000000


No. of Data Rows : 541
id_dropout_tt27: 84.2292
total_width_mm: 1.0
ngspice-42 done

--- Running tb_pass_idvgs_ss150.spice ---
Using SPARSE 1.3 as Direct Linear Solver

Note: No compatibility mode selected!


Circuit: * tb_pass_idvgs_ss150.spice — id vs vgs at dropout, ss 150c

Doing analysis at TEMP = 150.000000 and TNOM = 27.000000

 Reference value :  3.40000e-01
No. of Data Rows : 541
id_dropout_ss150: 56.8318
ngspice-42 done

--- Running tb_pass_cgs.spice ---
Using SPARSE 1.3 as Direct Linear Solver

Note: No compatibility mode selected!


Circuit: * tb_pass_cgs.spice — gate capacitance, tt 27c

Doing analysis at TEMP = 27.000000 and TNOM = 27.000000


No. of Data Rows : 31
cgs_pF: 1.03732
ngspice-42 done

--- Running tb_pass_gm.spice ---
Using SPARSE 1.3 as Direct Linear Solver

Note: No compatibility mode selected!


Circuit: * tb_pass_gm.spice — transconductance, tt 27c

Doing analysis at TEMP = 27.000000 and TNOM = 27.000000

 Reference value :  3.47500e+00gm_at_10mA: 5.4

No. of Data Rows : 1081
ngspice-42 done

--- Running tb_pass_rds.spice ---
Using SPARSE 1.3 as Direct Linear Solver

Note: No compatibility mode selected!


Circuit: * tb_pass_rds.spice — on-resistance, tt 27c

Doing analysis at TEMP = 27.000000 and TNOM = 27.000000


No. of Data Rows : 1
rds_on_ohm: 4.74895
ngspice-42 done

--- Running tb_pass_leakage.spice ---
Using SPARSE 1.3 as Direct Linear Solver

Note: No compatibility mode selected!


Circuit: * tb_pass_leakage.spice — off-state leakage, tt 27c

Doing analysis at TEMP = 27.000000 and TNOM = 27.000000


No. of Data Rows : 1
leakage_off_uA: 2.06148E-05
ngspice-42 done

--- Running tb_pass_pvt.spice ---
Using SPARSE 1.3 as Direct Linear Solver
Using SPARSE 1.3 as Direct Linear Solver

Note: No compatibility mode selected!


Circuit: * tb_pass_pvt.spice — pvt corners (tt only, calls ss/ff sub-files)

Doing analysis at TEMP = -40.000000 and TNOM = 27.000000


No. of Data Rows : 1
pvt_id_tt_m40_mA: 103.16
Reset re-loads circuit * tb_pass_pvt.spice — pvt corners (tt only, calls ss/ff sub-files)

Circuit: * tb_pass_pvt.spice — pvt corners (tt only, calls ss/ff sub-files)

Doing analysis at TEMP = 27.000000 and TNOM = 27.000000

 Reference value :  0.00000e+00Using SPARSE 1.3 as Direct Linear Solver
Using SPARSE 1.3 as Direct Linear Solver
Using SPARSE 1.3 as Direct Linear Solver

Note: No compatibility mode selected!


Circuit: * tb_pass_pvt_ss.spice — ss corner pvt

Doing analysis at TEMP = -40.000000 and TNOM = 27.000000


No. of Data Rows : 1
pvt_id_ss_m40_mA: 92.7486
Reset re-loads circuit * tb_pass_pvt_ss.spice — ss corner pvt

Circuit: * tb_pass_pvt_ss.spice — ss corner pvt

Doing analysis at TEMP = 27.000000 and TNOM = 27.000000

 Reference value :  0.00000e+00Using SPARSE 1.3 as Direct Linear Solver

No. of Data Rows : 1
pvt_id_ss27_mA: 75.1853
Reset re-loads circuit * tb_pass_pvt_ss.spice — ss corner pvt

Circuit: * tb_pass_pvt_ss.spice — ss corner pvt

Doing analysis at TEMP = 150.000000 and TNOM = 27.000000


No. of Data Rows : 1
pvt_id_ss150_mA: 56.8318
ngspice-42 done
Using SPARSE 1.3 as Direct Linear Solver
Using SPARSE 1.3 as Direct Linear Solver

Note: No compatibility mode selected!


Circuit: * tb_pass_pvt_ff.spice — ff corner pvt

Doing analysis at TEMP = -40.000000 and TNOM = 27.000000


No. of Data Rows : 1
pvt_id_ff_m40_mA: 113.62
Reset re-loads circuit * tb_pass_pvt_ff.spice — ff corner pvt

Circuit: * tb_pass_pvt_ff.spice — ff corner pvt

Doing analysis at TEMP = 27.000000 and TNOM = 27.000000

 Reference value :  0.00000e+00Using SPARSE 1.3 as Direct Linear Solver

No. of Data Rows : 1
pvt_id_ff27_mA: 93.4452
Reset re-loads circuit * tb_pass_pvt_ff.spice — ff corner pvt

Circuit: * tb_pass_pvt_ff.spice — ff corner pvt

Doing analysis at TEMP = 150.000000 and TNOM = 27.000000


No. of Data Rows : 1
pvt_id_ff150_mA: 71.9459
ngspice-42 done

No. of Data Rows : 1
pvt_id_tt27_mA: 84.2292
Reset re-loads circuit * tb_pass_pvt.spice — pvt corners (tt only, calls ss/ff sub-files)

Circuit: * tb_pass_pvt.spice — pvt corners (tt only, calls ss/ff sub-files)

Doing analysis at TEMP = 150.000000 and TNOM = 27.000000


No. of Data Rows : 1
pvt_id_tt150_mA: 64.2523
ngspice-42 done

--- Running tb_pass_pvt_ss.spice ---
Using SPARSE 1.3 as Direct Linear Solver
Using SPARSE 1.3 as Direct Linear Solver

Note: No compatibility mode selected!


Circuit: * tb_pass_pvt_ss.spice — ss corner pvt

Doing analysis at TEMP = -40.000000 and TNOM = 27.000000


No. of Data Rows : 1
pvt_id_ss_m40_mA: 92.7486
Reset re-loads circuit * tb_pass_pvt_ss.spice — ss corner pvt

Circuit: * tb_pass_pvt_ss.spice — ss corner pvt

Doing analysis at TEMP = 27.000000 and TNOM = 27.000000

 Reference value :  0.00000e+00Using SPARSE 1.3 as Direct Linear Solver

No. of Data Rows : 1
pvt_id_ss27_mA: 75.1853
Reset re-loads circuit * tb_pass_pvt_ss.spice — ss corner pvt

Circuit: * tb_pass_pvt_ss.spice — ss corner pvt

Doing analysis at TEMP = 150.000000 and TNOM = 27.000000


No. of Data Rows : 1
pvt_id_ss150_mA: 56.8318
ngspice-42 done

--- Running tb_pass_pvt_ff.spice ---
Using SPARSE 1.3 as Direct Linear Solver
Using SPARSE 1.3 as Direct Linear Solver

Note: No compatibility mode selected!


Circuit: * tb_pass_pvt_ff.spice — ff corner pvt

Doing analysis at TEMP = -40.000000 and TNOM = 27.000000


No. of Data Rows : 1
pvt_id_ff_m40_mA: 113.62
Reset re-loads circuit * tb_pass_pvt_ff.spice — ff corner pvt

Circuit: * tb_pass_pvt_ff.spice — ff corner pvt

Doing analysis at TEMP = 27.000000 and TNOM = 27.000000

 Reference value :  0.00000e+00Using SPARSE 1.3 as Direct Linear Solver

No. of Data Rows : 1
pvt_id_ff27_mA: 93.4452
Reset re-loads circuit * tb_pass_pvt_ff.spice — ff corner pvt

Circuit: * tb_pass_pvt_ff.spice — ff corner pvt

Doing analysis at TEMP = 150.000000 and TNOM = 27.000000


No. of Data Rows : 1
pvt_id_ff150_mA: 71.9459
ngspice-42 done

--- Running tb_pass_soa.spice ---
Using SPARSE 1.3 as Direct Linear Solver

Note: No compatibility mode selected!


Circuit: * tb_pass_soa.spice — safe operating area, tt 150c

Doing analysis at TEMP = 150.000000 and TNOM = 27.000000


No. of Data Rows : 56
soa_id_at_max_vds_mA: 877.252
soa_max_vds_V: 5.5
soa_max_power_mW: 4824.89
soa_check: PASS
ngspice-42 done

--- Evaluation ---
---
* id_dropout_ss150_mA                   56.83  mA        (spec >= 50.0)  PASS
  id_dropout_tt27_mA                    84.23  mA        (spec >= 50.0)  PASS
  total_width_mm                            1  mm        (spec <= 20.0)  PASS
  rds_on_ohm                            4.749  ohm       (spec <= 20.0)  PASS
  leakage_off_uA                    2.061e-05  uA        (spec <= 1.0)  PASS
  cgs_pF                                1.037  pF        (spec >= 0.0)  PASS
  gm_at_10mA_mA_per_V                     5.4  mA/V      (spec >= 0.0)  PASS
specs_pass: 7/7
primary (id_dropout_ss150_mA): 56.8318

Run finished: Fri Mar 27 23:56:59 UTC 2026
