Using SPARSE 1.3 as Direct Linear Solver

Note: No compatibility mode selected!


Circuit: MOS Voltage Clamp IV

Doing analysis at TEMP = 27.000000 and TNOM = 27.000000

 Reference value :  0.00000e+00 Reference value :  3.60000e-01 Reference value :  8.60000e-01 Reference value :  2.48000e+00 Reference value :  2.96000e+00 Reference value :  3.35000e+00 Reference value :  3.99000e+00 Reference value :  4.75000e+00 Reference value :  5.31000e+00 Reference value :  6.36000e+00 Reference value :  6.74000e+00 Reference value :  7.55000e+00
No. of Data Rows : 801
Clamp IV done
ngspice-42 done
