Using SPARSE 1.3 as Direct Linear Solver
Note: Starting dynamic gmin stepping
Note: Dynamic gmin stepping completed

Note: No compatibility mode selected!


Circuit: PSRR_0mA

Doing analysis at TEMP = 27.000000 and TNOM = 27.000000

 Reference value :  1.00000e+00
No. of Data Rows : 351
psrr_1k             =  -4.455193e+01
PSRR_1K_0mA =
psrr_1k = -4.45519e+01
ngspice-42 done
