Using SPARSE 1.3 as Direct Linear Solver
Warning: singular matrix:  check nodes xdut.xsu.xr_top.t2 and xdut.vfb

Note: Starting dynamic gmin stepping
Note: Dynamic gmin stepping completed

Note: No compatibility mode selected!


Circuit: Bode_from_PSRR — Extract loop gain from PSRR complex response

Doing analysis at TEMP = 27.000000 and TNOM = 27.000000

 Reference value :  1.00000e+00
No. of Data Rows : 351
ngspice-42 done
