Using SPARSE 1.3 as Direct Linear Solver
Note: vac: has no value, DC 0 assumed

Note: No compatibility mode selected!


Circuit: PVDD Loop Stability Bode

Doing analysis at TEMP = 27.000000 and TNOM = 27.000000

 Reference value :  1.00000e+00
No. of Data Rows : 401
Plot 5 data saved
ngspice-42 done
