Using SPARSE 1.3 as Direct Linear Solver

Note: No compatibility mode selected!


Circuit: PVDD Startup Transient

Doing analysis at TEMP = 27.000000 and TNOM = 27.000000

Using transient initial conditions
 Reference value :  5.00000e-09 Reference value :  1.00999e-06 Reference value :  1.13053e-05 Reference value :  1.21809e-04 Reference value :  2.37809e-04 Reference value :  4.51809e-04 Reference value :  7.19809e-04 Reference value :  1.02381e-03 Reference value :  1.31181e-03 Reference value :  1.58781e-03 Reference value :  1.82381e-03 Reference value :  2.03068e-03 Reference value :  2.03156e-03 Reference value :  2.06579e-03 Reference value :  2.35779e-03 Reference value :  2.63579e-03 Reference value :  2.96379e-03 Reference value :  3.31379e-03 Reference value :  3.62779e-03 Reference value :  3.95179e-03 Reference value :  4.27979e-03 Reference value :  4.61779e-03 Reference value :  4.93379e-03 Reference value :  5.27579e-03 Reference value :  5.58579e-03 Reference value :  5.91979e-03 Reference value :  6.24979e-03 Reference value :  6.58979e-03 Reference value :  6.96379e-03 Reference value :  7.30379e-03 Reference value :  7.52379e-03 Reference value :  7.80979e-03 Reference value :  8.07779e-03 Reference value :  8.40579e-03 Reference value :  8.71579e-03 Reference value :  9.02979e-03 Reference value :  9.19179e-03 Reference value :  9.32579e-03 Reference value :  9.57979e-03 Reference value :  9.85579e-03 Reference value :  1.01918e-02 Reference value :  1.05458e-02 Reference value :  1.09098e-02 Reference value :  1.12918e-02 Reference value :  1.16618e-02 Reference value :  1.20418e-02 Reference value :  1.24178e-02 Reference value :  1.27518e-02 Reference value :  1.31098e-02 Reference value :  1.34698e-02 Reference value :  1.37818e-02 Reference value :  1.41198e-02 Reference value :  1.44778e-02 Reference value :  1.47658e-02 Reference value :  1.50818e-02 Reference value :  1.53498e-02 Reference value :  1.56718e-02 Reference value :  1.60338e-02 Reference value :  1.63458e-02 Reference value :  1.66838e-02 Reference value :  1.70478e-02 Reference value :  1.74018e-02 Reference value :  1.77598e-02 Reference value :  1.81198e-02 Reference value :  1.84578e-02 Reference value :  1.88018e-02 Reference value :  1.91538e-02 Reference value :  1.95318e-02 Reference value :  1.98278e-02
No. of Data Rows : 10148
Plot 2 data saved
ngspice-42 done
