Using SPARSE 1.3 as Direct Linear Solver

Note: No compatibility mode selected!


Circuit: PVDD LDO PVT Corner tt

Doing analysis at TEMP = 27.000000 and TNOM = 27.000000

Using transient initial conditions
 Reference value :  1.00000e-08 Reference value :  3.48376e-07 Reference value :  7.24080e-06 Reference value :  1.99289e-04 Reference value :  5.39289e-04 Reference value :  1.05929e-03 Reference value :  1.64929e-03
No. of Data Rows : 289
pvdd_final          =  4.323153e+00
@@@ PVDD_RESULT @@@
pvdd_final = 4.323153e+00
@@@ END_RESULT @@@
ngspice-42 done
