Using SPARSE 1.3 as Direct Linear Solver

Note: No compatibility mode selected!


Circuit: Plot8 PVT ss

Doing analysis at TEMP = 27.000000 and TNOM = 27.000000

Using transient initial conditions
 Reference value :  5.00000e-09 Reference value :  2.92086e-06 Reference value :  4.34824e-05 Reference value :  1.41704e-03 Reference value :  2.16326e-03 Reference value :  4.09326e-03 Reference value :  5.95326e-03 Reference value :  7.87326e-03 Reference value :  9.76326e-03 Reference value :  1.16933e-02 Reference value :  1.31533e-02 Reference value :  1.46533e-02 Reference value :  1.61533e-02 Reference value :  1.74033e-02 Reference value :  1.87733e-02 Reference value :  1.99233e-02
No. of Data Rows : 2135
ngspice-42 done
