Using SPARSE 1.3 as Direct Linear Solver

Note: No compatibility mode selected!


Circuit: Plot8 PVT ff

Doing analysis at TEMP = 27.000000 and TNOM = 27.000000

Using transient initial conditions
 Reference value :  5.00000e-09 Reference value :  2.21734e-08 Reference value :  6.81581e-07 Reference value :  7.52531e-07 Reference value :  1.79070e-06 Reference value :  2.64903e-06 Reference value :  2.87266e-06 Reference value :  9.51566e-06 Reference value :  3.89353e-05 Reference value :  5.31194e-04 Reference value :  1.28119e-03 Reference value :  1.65119e-03 Reference value :  1.94119e-03 Reference value :  2.02244e-03 Reference value :  2.02940e-03 Reference value :  2.02994e-03 Reference value :  2.03007e-03 Reference value :  2.03018e-03 Reference value :  2.06156e-03 Reference value :  2.48156e-03 Reference value :  2.94156e-03 Reference value :  3.49156e-03 Reference value :  3.98156e-03 Reference value :  4.33156e-03 Reference value :  4.90156e-03 Reference value :  5.44156e-03 Reference value :  5.75156e-03 Reference value :  6.08156e-03 Reference value :  6.37156e-03 Reference value :  6.66156e-03 Reference value :  7.10156e-03 Reference value :  7.52156e-03 Reference value :  7.86156e-03 Reference value :  8.17156e-03 Reference value :  8.53156e-03 Reference value :  8.89156e-03 Reference value :  9.17156e-03 Reference value :  9.45156e-03 Reference value :  9.77156e-03 Reference value :  1.03916e-02 Reference value :  1.08516e-02 Reference value :  1.15116e-02 Reference value :  1.20416e-02 Reference value :  1.23416e-02 Reference value :  1.27816e-02 Reference value :  1.31016e-02 Reference value :  1.35616e-02 Reference value :  1.38916e-02 Reference value :  1.42416e-02 Reference value :  1.45216e-02 Reference value :  1.48116e-02 Reference value :  1.51116e-02 Reference value :  1.54216e-02 Reference value :  1.58016e-02 Reference value :  1.61216e-02 Reference value :  1.64116e-02 Reference value :  1.67916e-02 Reference value :  1.71816e-02 Reference value :  1.75316e-02 Reference value :  1.81616e-02 Reference value :  1.88016e-02 Reference value :  1.91816e-02 Reference value :  1.95816e-02
No. of Data Rows : 2155
ngspice-42 done
