Using SPARSE 1.3 as Direct Linear Solver

Note: No compatibility mode selected!


Circuit: Plot8 PVT fs

Doing analysis at TEMP = 27.000000 and TNOM = 27.000000

Using transient initial conditions
 Reference value :  5.00000e-09 Reference value :  6.58412e-07 Reference value :  1.13114e-06 Reference value :  2.92404e-06 Reference value :  6.84068e-06 Reference value :  1.09225e-05 Reference value :  1.33908e-05 Reference value :  1.76223e-04 Reference value :  4.36223e-04 Reference value :  8.46223e-04 Reference value :  1.15622e-03 Reference value :  1.51622e-03 Reference value :  1.80622e-03 Reference value :  2.04622e-03 Reference value :  2.46622e-03 Reference value :  2.77622e-03 Reference value :  3.10622e-03 Reference value :  3.50622e-03 Reference value :  3.94622e-03 Reference value :  4.25622e-03 Reference value :  4.67622e-03 Reference value :  4.96622e-03 Reference value :  5.29622e-03 Reference value :  5.77622e-03 Reference value :  6.51622e-03 Reference value :  7.50622e-03 Reference value :  8.33622e-03 Reference value :  8.67622e-03 Reference value :  8.98622e-03 Reference value :  9.40622e-03 Reference value :  9.69622e-03 Reference value :  1.01162e-02 Reference value :  1.04762e-02 Reference value :  1.08062e-02 Reference value :  1.11362e-02 Reference value :  1.16662e-02 Reference value :  1.19862e-02 Reference value :  1.24962e-02 Reference value :  1.28762e-02 Reference value :  1.33462e-02 Reference value :  1.37262e-02 Reference value :  1.40462e-02 Reference value :  1.44462e-02 Reference value :  1.49462e-02 Reference value :  1.52762e-02 Reference value :  1.55662e-02 Reference value :  1.58462e-02 Reference value :  1.61162e-02 Reference value :  1.65662e-02 Reference value :  1.69962e-02 Reference value :  1.74062e-02 Reference value :  1.76962e-02 Reference value :  1.80562e-02 Reference value :  1.83562e-02 Reference value :  1.86962e-02 Reference value :  1.90162e-02 Reference value :  1.93062e-02 Reference value :  1.95862e-02 Reference value :  2.00000e-02
No. of Data Rows : 2128
ngspice-42 done
