Using SPARSE 1.3 as Direct Linear Solver

Note: No compatibility mode selected!


Circuit: PVDD LDO PVT Corner fs

Doing analysis at TEMP = 27.000000 and TNOM = 27.000000

Using transient initial conditions
 Reference value :  1.00000e-08 Reference value :  3.24008e-07 Reference value :  1.04353e-06 Reference value :  3.72061e-04 Reference value :  1.26206e-03
No. of Data Rows : 285
pvdd_final          =  4.323227e+00
@@@ PVDD_RESULT @@@
pvdd_final = 4.323227e+00
@@@ END_RESULT @@@
ngspice-42 done
