Using SPARSE 1.3 as Direct Linear Solver

Note: No compatibility mode selected!


Circuit: PVDD LDO PVT Corner ff

Doing analysis at TEMP = 27.000000 and TNOM = 27.000000

Using transient initial conditions
 Reference value :  1.00000e-08 Reference value :  1.89775e-07 Reference value :  6.99892e-07 Reference value :  1.81797e-05 Reference value :  4.09269e-04 Reference value :  1.41927e-03
No. of Data Rows : 290
pvdd_final          =  4.323172e+00
@@@ PVDD_RESULT @@@
pvdd_final = 4.323172e+00
@@@ END_RESULT @@@
ngspice-42 done
