Using SPARSE 1.3 as Direct Linear Solver

Note: No compatibility mode selected!


Circuit: Plot8 PVT sf

Doing analysis at TEMP = 27.000000 and TNOM = 27.000000

Using transient initial conditions
 Reference value :  5.00000e-09 Reference value :  6.37042e-07 Reference value :  2.37029e-06 Reference value :  1.00339e-05 Reference value :  1.12834e-05 Reference value :  1.81404e-05 Reference value :  1.47390e-04 Reference value :  2.87390e-04 Reference value :  1.22739e-03 Reference value :  2.02864e-03 Reference value :  2.03360e-03 Reference value :  2.03391e-03 Reference value :  2.03508e-03 Reference value :  2.36018e-03 Reference value :  2.67018e-03 Reference value :  2.99018e-03 Reference value :  3.31018e-03 Reference value :  3.77018e-03 Reference value :  4.14018e-03 Reference value :  4.49018e-03 Reference value :  4.92018e-03 Reference value :  5.21018e-03 Reference value :  5.73018e-03 Reference value :  6.10018e-03 Reference value :  6.48018e-03 Reference value :  6.90018e-03 Reference value :  7.26018e-03 Reference value :  7.59018e-03 Reference value :  8.03018e-03 Reference value :  8.38018e-03 Reference value :  8.82018e-03 Reference value :  9.47018e-03 Reference value :  9.98018e-03 Reference value :  1.03502e-02 Reference value :  1.09202e-02 Reference value :  1.13902e-02 Reference value :  1.22502e-02 Reference value :  1.33302e-02 Reference value :  1.36402e-02 Reference value :  1.39702e-02 Reference value :  1.42602e-02 Reference value :  1.45702e-02 Reference value :  1.49102e-02 Reference value :  1.52102e-02 Reference value :  1.55202e-02 Reference value :  1.58102e-02 Reference value :  1.61502e-02 Reference value :  1.64802e-02 Reference value :  1.69302e-02 Reference value :  1.72802e-02 Reference value :  1.78302e-02 Reference value :  1.83002e-02 Reference value :  1.87402e-02 Reference value :  1.90302e-02 Reference value :  1.94302e-02 Reference value :  1.98202e-02
No. of Data Rows : 2155
ngspice-42 done
