Using SPARSE 1.3 as Direct Linear Solver

Note: No compatibility mode selected!


Circuit: SS Debug

Doing analysis at TEMP = 27.000000 and TNOM = 27.000000

Using transient initial conditions
 Reference value :  5.00000e-09 Reference value :  2.27615e-06 Reference value :  1.15129e-05 Reference value :  2.08664e-03 Reference value :  1.43866e-02 Reference value :  2.60866e-02 Reference value :  3.77866e-02 Reference value :  4.94866e-02 Reference value :  6.11866e-02 Reference value :  6.91866e-02 Reference value :  7.27866e-02 Reference value :  7.78866e-02 Reference value :  8.38866e-02 Reference value :  8.74866e-02 Reference value :  9.14866e-02 Reference value :  9.49866e-02
No. of Data Rows : 1141
ngspice-42 done
