=== Block 09: Startup Circuit ===
Run started: Sun Mar 29 18:56:40 UTC 2026

--- Running tb_su_basic.spice ---
Using SPARSE 1.3 as Direct Linear Solver

Note: No compatibility mode selected!


Circuit: * tb_su_basic.spice — basic startup test with integrated level shifter

Doing analysis at TEMP = 27.000000 and TNOM = 27.000000

Using transient initial conditions
 Reference value :  5.00000e-10 Reference value :  1.15233e-05 Reference value :  2.57233e-05 Reference value :  3.93233e-05 Reference value :  5.35233e-05 Reference value :  6.65233e-05 Reference value :  8.07733e-05 Reference value :  9.45233e-05 Reference value :  1.08573e-04 Reference value :  1.22273e-04 Reference value :  1.36523e-04 Reference value :  1.44123e-04 Reference value :  1.58023e-04 Reference value :  1.72273e-04 Reference value :  1.86423e-04 Reference value :  2.00723e-04 Reference value :  2.07973e-04 Reference value :  2.22173e-04 Reference value :  2.36423e-04 Reference value :  2.50523e-04 Reference value :  2.63923e-04 Reference value :  2.78023e-04 Reference value :  2.90423e-04
No. of Data Rows : 6023

  Measurements for Transient Analysis

pvdd_max            =  5.184470e+00 at=  3.167328e-05
pvdd_at_50u         =  5.150827e+00
pvdd_at_100u        =  4.939166e+00
pvdd_at_200u        =  4.976998e+00

Using SPARSE 1.3 as Direct Linear Solver
PVDD peak: 5.18447 V
PVDD final: 5.03365 V
Overshoot: 184.47 mV
startup_time_ss150_us: 0
pvdd_overshoot_mV: 184.47
pvdd_monotonic: 1
no_latch_stuck: 1
Doing analysis at TEMP = 27.000000 and TNOM = 27.000000

Using transient initial conditions
 Reference value :  5.00000e-10 Reference value :  1.05233e-05 Reference value :  2.49733e-05 Reference value :  3.94733e-05 Reference value :  5.39733e-05 Reference value :  6.84733e-05 Reference value :  7.53233e-05 Reference value :  8.90733e-05 Reference value :  1.02723e-04 Reference value :  1.16373e-04 Reference value :  1.30723e-04 Reference value :  1.45223e-04 Reference value :  1.59123e-04 Reference value :  1.68223e-04 Reference value :  1.82273e-04 Reference value :  1.96123e-04 Reference value :  2.10573e-04 Reference value :  2.24923e-04 Reference value :  2.38573e-04 Reference value :  2.51773e-04 Reference value :  2.61673e-04 Reference value :  2.75873e-04 Reference value :  2.89923e-04
No. of Data Rows : 6023

  Measurements for Transient Analysis

pvdd_max            =  5.184470e+00 at=  3.167328e-05
pvdd_at_50u         =  5.150827e+00
pvdd_at_100u        =  4.939166e+00
pvdd_at_200u        =  4.976998e+00


Total analysis time (seconds) = 6.83

Total elapsed time (seconds) = 7.594 

Total DRAM available = 3834.176 MB.
DRAM currently available =  235.207 MB.
Maximum ngspice program size =   66.176 MB.
Current ngspice program size =   49.617 MB.

Shared ngspice pages =   10.773 MB.
Text (code) pages =    6.156 MB.
Stack = 0 bytes.
Library pages =   46.930 MB.


--- Running tb_su_handoff.spice ---
Using SPARSE 1.3 as Direct Linear Solver

Note: No compatibility mode selected!


Circuit: * tb_su_handoff.spice — measure pvdd disturbance at startup-to-regulation handoff

Doing analysis at TEMP = 27.000000 and TNOM = 27.000000

Using transient initial conditions
 Reference value :  1.00000e-10 Reference value :  2.47969e-06 Reference value :  5.16969e-06 Reference value :  7.91940e-06 Reference value :  1.06994e-05 Reference value :  1.20894e-05 Reference value :  1.47794e-05 Reference value :  1.74694e-05 Reference value :  2.02694e-05 Reference value :  2.31794e-05 Reference value :  2.57094e-05 Reference value :  2.83394e-05 Reference value :  3.03694e-05 Reference value :  3.31294e-05 Reference value :  3.56594e-05 Reference value :  3.84994e-05 Reference value :  4.13094e-05 Reference value :  4.40194e-05 Reference value :  4.60594e-05 Reference value :  4.80694e-05
No. of Data Rows : 5022
handoff_glitch_mV: 50
Note: Simulation executed from .control section 

--- Running tb_su_50mA.spice ---
Using SPARSE 1.3 as Direct Linear Solver

Note: No compatibility mode selected!


Circuit: * tb_su_50ma.spice — startup with 50 ma load

Doing analysis at TEMP = 27.000000 and TNOM = 27.000000

Using transient initial conditions
 Reference value :  1.00000e-09 Reference value :  2.05078e-05 Reference value :  4.81078e-05 Reference value :  7.63078e-05 Reference value :  1.06208e-04 Reference value :  1.31508e-04 Reference value :  1.56808e-04 Reference value :  1.75608e-04 Reference value :  2.03608e-04 Reference value :  2.31408e-04 Reference value :  2.59808e-04 Reference value :  2.88308e-04
No. of Data Rows : 3025

  Measurements for Transient Analysis


Error: measure  t_pvdd_495  when(WHEN) : out of interval
 .meas tran t_pvdd_495 when v(pvdd)=4.95 rise=1 failed!

t_bvdd_56           =   5.60000e-06
pvdd_max            =  4.626603e+00 at=  1.033078e-04
pvdd_at_200u        =  4.626346e+00

Using SPARSE 1.3 as Direct Linear Solver
startup_time_50mA_us: 5
Doing analysis at TEMP = 27.000000 and TNOM = 27.000000

Using transient initial conditions
 Reference value :  9.55000e-06 Reference value :  2.59078e-05 Reference value :  5.47078e-05 Reference value :  8.36078e-05 Reference value :  1.12408e-04 Reference value :  1.41308e-04 Reference value :  1.67808e-04 Reference value :  1.96708e-04 Reference value :  2.13208e-04 Reference value :  2.40608e-04 Reference value :  2.67308e-04 Reference value :  2.96108e-04
No. of Data Rows : 3025

  Measurements for Transient Analysis


Error: measure  t_pvdd_495  when(WHEN) : out of interval
 .meas tran t_pvdd_495 when v(pvdd)=4.95 rise=1 failed!

t_bvdd_56           =   5.60000e-06
pvdd_max            =  4.626603e+00 at=  1.033078e-04
pvdd_at_200u        =  4.626346e+00


Total analysis time (seconds) = 3.438

Total elapsed time (seconds) = 4.244 

Total DRAM available = 3834.176 MB.
DRAM currently available =  240.078 MB.
Maximum ngspice program size =   61.020 MB.
Current ngspice program size =   44.324 MB.

Shared ngspice pages =   10.609 MB.
Text (code) pages =    6.156 MB.
Stack = 0 bytes.
Library pages =   41.773 MB.


--- Running tb_su_fast_ramp.spice ---
Using SPARSE 1.3 as Direct Linear Solver

Note: No compatibility mode selected!


Circuit: * tb_su_fast_ramp.spice — 12 v/us bvdd ramp, overshoot measurement

Doing analysis at TEMP = 27.000000 and TNOM = 27.000000

Using transient initial conditions
 Reference value :  1.00000e-10 Reference value :  2.00823e-06 Reference value :  4.80823e-06 Reference value :  7.57823e-06 Reference value :  1.03382e-05 Reference value :  1.15982e-05 Reference value :  1.43182e-05 Reference value :  1.70982e-05 Reference value :  1.98982e-05 Reference value :  2.27482e-05 Reference value :  2.52182e-05 Reference value :  2.78982e-05 Reference value :  2.97382e-05 Reference value :  3.23182e-05 Reference value :  3.50782e-05 Reference value :  3.77282e-05 Reference value :  4.05982e-05 Reference value :  4.33582e-05 Reference value :  4.53082e-05 Reference value :  4.75882e-05 Reference value :  5.03882e-05 Reference value :  5.31482e-05 Reference value :  5.57682e-05 Reference value :  5.82882e-05 Reference value :  6.10282e-05 Reference value :  6.26682e-05 Reference value :  6.53782e-05 Reference value :  6.81882e-05 Reference value :  7.09982e-05 Reference value :  7.38482e-05 Reference value :  7.66182e-05 Reference value :  7.93282e-05 Reference value :  8.08282e-05 Reference value :  8.35882e-05 Reference value :  8.62582e-05 Reference value :  8.90482e-05 Reference value :  9.17582e-05 Reference value :  9.45282e-05 Reference value :  9.67382e-05 Reference value :  9.90282e-05 Reference value :  1.01818e-04 Reference value :  1.04618e-04 Reference value :  1.07408e-04 Reference value :  1.10218e-04 Reference value :  1.12888e-04 Reference value :  1.14698e-04 Reference value :  1.17048e-04 Reference value :  1.19848e-04 Reference value :  1.22518e-04 Reference value :  1.25368e-04 Reference value :  1.27988e-04 Reference value :  1.30668e-04 Reference value :  1.32548e-04 Reference value :  1.35328e-04 Reference value :  1.37918e-04 Reference value :  1.40588e-04 Reference value :  1.43448e-04 Reference value :  1.46258e-04 Reference value :  1.48958e-04 Reference value :  1.50508e-04 Reference value :  1.53308e-04 Reference value :  1.55968e-04 Reference value :  1.58658e-04 Reference value :  1.61448e-04 Reference value :  1.64218e-04 Reference value :  1.66278e-04 Reference value :  1.68558e-04 Reference value :  1.71318e-04 Reference value :  1.74108e-04 Reference value :  1.76868e-04 Reference value :  1.79498e-04 Reference value :  1.82248e-04 Reference value :  1.83888e-04 Reference value :  1.86578e-04 Reference value :  1.89148e-04 Reference value :  1.91938e-04 Reference value :  1.94798e-04 Reference value :  1.97448e-04
No. of Data Rows : 20021

  Measurements for Transient Analysis

pvdd_max            =  1.049977e+01 at=  3.948230e-06
pvdd_at_100u        =  9.434956e+00

Using SPARSE 1.3 as Direct Linear Solver
works_fast_ramp: 1
Fast ramp PVDD peak: 10.4998 V
Fast ramp overshoot: 5499.77 mV
Doing analysis at TEMP = 27.000000 and TNOM = 27.000000

Using transient initial conditions
 Reference value :  1.00000e-10 Reference value :  1.93823e-06 Reference value :  4.59823e-06 Reference value :  7.43823e-06 Reference value :  1.02382e-05 Reference value :  1.30782e-05 Reference value :  1.58982e-05 Reference value :  1.75482e-05 Reference value :  2.00682e-05 Reference value :  2.28882e-05 Reference value :  2.56082e-05 Reference value :  2.84382e-05 Reference value :  3.12482e-05 Reference value :  3.40682e-05 Reference value :  3.57182e-05 Reference value :  3.85482e-05 Reference value :  4.10782e-05 Reference value :  4.39082e-05 Reference value :  4.67982e-05 Reference value :  4.94882e-05 Reference value :  5.21582e-05 Reference value :  5.38682e-05 Reference value :  5.67282e-05 Reference value :  5.95082e-05 Reference value :  6.23082e-05 Reference value :  6.51782e-05 Reference value :  6.80382e-05 Reference value :  6.99982e-05 Reference value :  7.24082e-05 Reference value :  7.52682e-05 Reference value :  7.81082e-05 Reference value :  8.09682e-05 Reference value :  8.37082e-05 Reference value :  8.63582e-05 Reference value :  8.79982e-05 Reference value :  9.08482e-05 Reference value :  9.35382e-05 Reference value :  9.62282e-05 Reference value :  9.89882e-05 Reference value :  1.01848e-04 Reference value :  1.04608e-04 Reference value :  1.06328e-04 Reference value :  1.09188e-04 Reference value :  1.12038e-04 Reference value :  1.14868e-04 Reference value :  1.17448e-04 Reference value :  1.20298e-04 Reference value :  1.22708e-04 Reference value :  1.24678e-04 Reference value :  1.27278e-04 Reference value :  1.29978e-04 Reference value :  1.32888e-04 Reference value :  1.35738e-04 Reference value :  1.38418e-04 Reference value :  1.40248e-04 Reference value :  1.43088e-04 Reference value :  1.45928e-04 Reference value :  1.48438e-04 Reference value :  1.51348e-04 Reference value :  1.54158e-04 Reference value :  1.56918e-04 Reference value :  1.58158e-04 Reference value :  1.61018e-04 Reference value :  1.63868e-04 Reference value :  1.66798e-04 Reference value :  1.69668e-04 Reference value :  1.72218e-04 Reference value :  1.74918e-04 Reference value :  1.76948e-04 Reference value :  1.79608e-04 Reference value :  1.82468e-04 Reference value :  1.85348e-04 Reference value :  1.88168e-04 Reference value :  1.91018e-04 Reference value :  1.93088e-04 Reference value :  1.95258e-04 Reference value :  1.98118e-04
No. of Data Rows : 20021

  Measurements for Transient Analysis

pvdd_max            =  1.049977e+01 at=  3.948230e-06
pvdd_at_100u        =  9.434956e+00


Total analysis time (seconds) = 23.079

Total elapsed time (seconds) = 23.950 

Total DRAM available = 3834.176 MB.
DRAM currently available =  219.648 MB.
Maximum ngspice program size =   88.785 MB.
Current ngspice program size =   72.098 MB.

Shared ngspice pages =   10.730 MB.
Text (code) pages =    6.156 MB.
Stack = 0 bytes.
Library pages =   69.539 MB.


--- Running tb_su_slow_ramp.spice ---
Using SPARSE 1.3 as Direct Linear Solver

Note: No compatibility mode selected!


Circuit: * tb_su_slow_ramp.spice — 0.1 v/us bvdd ramp, verify startup completes

Doing analysis at TEMP = 27.000000 and TNOM = 27.000000

Using transient initial conditions
 Reference value :  5.00000e-09 Reference value :  8.84771e-05 Reference value :  2.27144e-04 Reference value :  3.69144e-04 Reference value :  4.95144e-04
No. of Data Rows : 1028

  Measurements for Transient Analysis

t_pvdd_495          =   4.95194e-05
pvdd_at_200u        =  9.429901e+00
pvdd_at_400u        =  9.429902e+00

Using SPARSE 1.3 as Direct Linear Solver
works_slow_ramp: 1
Slow ramp: startup completes, PVDD peak = 9.43183 V
Doing analysis at TEMP = 27.000000 and TNOM = 27.000000

Using transient initial conditions
 Reference value :  8.74771e-05 Reference value :  1.55644e-04 Reference value :  2.97644e-04 Reference value :  4.37144e-04
No. of Data Rows : 1028

  Measurements for Transient Analysis

t_pvdd_495          =   4.95194e-05
pvdd_at_200u        =  9.429901e+00
pvdd_at_400u        =  9.429902e+00


Total analysis time (seconds) = 1.26

Total elapsed time (seconds) = 2.051 

Total DRAM available = 3834.176 MB.
DRAM currently available =  233.547 MB.
Maximum ngspice program size =   57.836 MB.
Current ngspice program size =   41.090 MB.

Shared ngspice pages =   10.590 MB.
Text (code) pages =    6.156 MB.
Stack = 0 bytes.
Library pages =   38.590 MB.


--- Running tb_su_cold_crank.spice ---
Using SPARSE 1.3 as Direct Linear Solver

Note: No compatibility mode selected!


Circuit: * tb_su_cold_crank.spice — cold crank recovery: bvdd 10.5v -> 3v -> 7v

Doing analysis at TEMP = 27.000000 and TNOM = 27.000000

Using transient initial conditions
 Reference value :  1.00000e-09 Reference value :  1.89500e-05 Reference value :  4.74500e-05 Reference value :  7.36500e-05 Reference value :  1.00000e-04 Reference value :  1.19550e-04 Reference value :  1.41950e-04 Reference value :  1.70050e-04 Reference value :  1.98150e-04 Reference value :  2.26950e-04 Reference value :  2.51750e-04 Reference value :  2.79850e-04 Reference value :  2.96950e-04 Reference value :  3.23550e-04 Reference value :  3.49950e-04 Reference value :  3.78250e-04 Reference value :  4.06150e-04 Reference value :  4.33450e-04 Reference value :  4.59950e-04 Reference value :  4.76350e-04
No. of Data Rows : 5040

  Measurements for Transient Analysis

pvdd_at_90u         =  4.977771e+00
pvdd_at_200u        =  5.957472e+00
pvdd_at_400u        =  5.957472e+00

Using SPARSE 1.3 as Direct Linear Solver
cold_crank_ok: 1
Cold crank recovery: PVDD final = 5.95747 V
Doing analysis at TEMP = 27.000000 and TNOM = 27.000000

Using transient initial conditions
 Reference value :  1.41924e-09 Reference value :  2.13500e-05 Reference value :  4.93500e-05 Reference value :  7.60500e-05 Reference value :  1.02850e-04 Reference value :  1.24750e-04 Reference value :  1.47950e-04 Reference value :  1.76250e-04 Reference value :  2.04950e-04 Reference value :  2.34350e-04 Reference value :  2.63050e-04 Reference value :  2.90450e-04 Reference value :  3.07250e-04 Reference value :  3.34850e-04 Reference value :  3.61050e-04 Reference value :  3.89650e-04 Reference value :  4.18350e-04 Reference value :  4.47050e-04 Reference value :  4.74150e-04 Reference value :  4.93750e-04
No. of Data Rows : 5040

  Measurements for Transient Analysis

pvdd_at_90u         =  4.977771e+00
pvdd_at_200u        =  5.957472e+00
pvdd_at_400u        =  5.957472e+00


Total analysis time (seconds) = 5.848

Total elapsed time (seconds) = 6.649 

Total DRAM available = 3834.176 MB.
DRAM currently available =  233.012 MB.
Maximum ngspice program size =   64.453 MB.
Current ngspice program size =   47.762 MB.

Shared ngspice pages =   10.699 MB.
Text (code) pages =    6.156 MB.
Stack = 0 bytes.
Library pages =   45.207 MB.


--- Running tb_su_leakage.spice ---
Using SPARSE 1.3 as Direct Linear Solver

Note: No compatibility mode selected!


Circuit: * tb_su_leakage.spice — measure startup circuit leakage after startup complete

Doing analysis at TEMP = 27.000000 and TNOM = 27.000000

 Reference value :  0.00000e+00Using SPARSE 1.3 as Direct Linear Solver

No. of Data Rows : 1
BVDD current (startup leakage): 0.240806 uA
PVDD current (divider): 0.485369 uA
leakage_after_uA: 0.240806
Doing analysis at TEMP = 27.000000 and TNOM = 27.000000


No. of Data Rows : 1
	Node                                  Voltage
	----                                  -------
	----	-------
	m.xstartup.xmn_det.msky130_fd_pr__nfet_g5v0d10v5#sbody   1.194857e-12
	m.xstartup.xmn_det.msky130_fd_pr__nfet_g5v0d10v5#body   2.389714e-12
	m.xstartup.xmn_det.msky130_fd_pr__nfet_g5v0d10v5#dbody   5.974286e-12
	m.xstartup.xmn_gate.msky130_fd_pr__nfet_g5v0d10v5#sbody   3.751367e-09
	m.xstartup.xmn_gate.msky130_fd_pr__nfet_g5v0d10v5#body   7.502734e-09
	m.xstartup.xmn_gate.msky130_fd_pr__nfet_g5v0d10v5#dbody   1.875002e-08
	m.xstartup.xmn_pu1.msky130_fd_pr__nfet_g5v0d10v5#sbody   2.312537e-08
	m.xstartup.xmn_pu1.msky130_fd_pr__nfet_g5v0d10v5#body   1.625025e-08
	m.xstartup.xmn_pu1.msky130_fd_pr__nfet_g5v0d10v5#dbody   2.562537e-08
	m.xstartup.xmn_pu2.msky130_fd_pr__nfet_g5v0d10v5#sbody   2.312537e-08
	m.xstartup.xmn_pu2.msky130_fd_pr__nfet_g5v0d10v5#body   1.625025e-08
	m.xstartup.xmn_pu2.msky130_fd_pr__nfet_g5v0d10v5#dbody   2.562537e-08
	m.xstartup.xmn_pu3.msky130_fd_pr__nfet_g5v0d10v5#sbody   2.312537e-08
	m.xstartup.xmn_pu3.msky130_fd_pr__nfet_g5v0d10v5#body   1.625025e-08
	m.xstartup.xmn_pu3.msky130_fd_pr__nfet_g5v0d10v5#dbody   2.562537e-08
	m.xstartup.xmn_pu4.msky130_fd_pr__nfet_g5v0d10v5#sbody   2.312537e-08
	m.xstartup.xmn_pu4.msky130_fd_pr__nfet_g5v0d10v5#body   1.625025e-08
	m.xstartup.xmn_pu4.msky130_fd_pr__nfet_g5v0d10v5#dbody   2.562537e-08
	m.xstartup.xmn_pu5.msky130_fd_pr__nfet_g5v0d10v5#sbody   2.312537e-08
	m.xstartup.xmn_pu5.msky130_fd_pr__nfet_g5v0d10v5#body   1.625025e-08
	m.xstartup.xmn_pu5.msky130_fd_pr__nfet_g5v0d10v5#dbody   2.562537e-08
	m.xstartup.xmn_pu6.msky130_fd_pr__nfet_g5v0d10v5#sbody   2.312537e-08
	m.xstartup.xmn_pu6.msky130_fd_pr__nfet_g5v0d10v5#body   1.625025e-08
	m.xstartup.xmn_pu6.msky130_fd_pr__nfet_g5v0d10v5#dbody   2.562537e-08
	m.xstartup.xmn_pu7.msky130_fd_pr__nfet_g5v0d10v5#sbody   2.312537e-08
	m.xstartup.xmn_pu7.msky130_fd_pr__nfet_g5v0d10v5#body   1.625025e-08
	m.xstartup.xmn_pu7.msky130_fd_pr__nfet_g5v0d10v5#dbody   2.562537e-08
	m.xstartup.xmn_pu8.msky130_fd_pr__nfet_g5v0d10v5#sbody   2.312537e-08
	m.xstartup.xmn_pu8.msky130_fd_pr__nfet_g5v0d10v5#body   1.625025e-08
	m.xstartup.xmn_pu8.msky130_fd_pr__nfet_g5v0d10v5#dbody   2.562537e-08
	m.xstartup.xmn_pu9.msky130_fd_pr__nfet_g5v0d10v5#sbody   2.312537e-08
	m.xstartup.xmn_pu9.msky130_fd_pr__nfet_g5v0d10v5#body   1.625025e-08
	m.xstartup.xmn_pu9.msky130_fd_pr__nfet_g5v0d10v5#dbody   2.562537e-08
	m.xstartup.xmn_pu10.msky130_fd_pr__nfet_g5v0d10v5#sbody   2.312537e-08
	m.xstartup.xmn_pu10.msky130_fd_pr__nfet_g5v0d10v5#body   1.625025e-08
	m.xstartup.xmn_pu10.msky130_fd_pr__nfet_g5v0d10v5#dbody   2.562537e-08
	m.xstartup.xmn_pu11.msky130_fd_pr__nfet_g5v0d10v5#sbody   2.312537e-08
	m.xstartup.xmn_pu11.msky130_fd_pr__nfet_g5v0d10v5#body   1.625025e-08
	m.xstartup.xmn_pu11.msky130_fd_pr__nfet_g5v0d10v5#dbody   2.562537e-08
	m.xstartup.xmn_pu12.msky130_fd_pr__nfet_g5v0d10v5#sbody   2.312537e-08
	m.xstartup.xmn_pu12.msky130_fd_pr__nfet_g5v0d10v5#body   1.625025e-08
	m.xstartup.xmn_pu12.msky130_fd_pr__nfet_g5v0d10v5#dbody   2.562537e-08
	m.xstartup.xmn_pu13.msky130_fd_pr__nfet_g5v0d10v5#sbody   2.312537e-08
	m.xstartup.xmn_pu13.msky130_fd_pr__nfet_g5v0d10v5#body   1.625025e-08
	m.xstartup.xmn_pu13.msky130_fd_pr__nfet_g5v0d10v5#dbody   2.562537e-08
	m.xstartup.xmn_pu14.msky130_fd_pr__nfet_g5v0d10v5#sbody   2.312537e-08
	m.xstartup.xmn_pu14.msky130_fd_pr__nfet_g5v0d10v5#body   1.625025e-08
	m.xstartup.xmn_pu14.msky130_fd_pr__nfet_g5v0d10v5#dbody   2.562537e-08
	m.xstartup.xmn_pu15.msky130_fd_pr__nfet_g5v0d10v5#sbody   2.312537e-08
	m.xstartup.xmn_pu15.msky130_fd_pr__nfet_g5v0d10v5#body   1.625025e-08
	m.xstartup.xmn_pu15.msky130_fd_pr__nfet_g5v0d10v5#dbody   2.562537e-08
	m.xstartup.xmn_pu16.msky130_fd_pr__nfet_g5v0d10v5#sbody   2.312537e-08
	m.xstartup.xmn_pu16.msky130_fd_pr__nfet_g5v0d10v5#body   1.625025e-08
	m.xstartup.xmn_pu16.msky130_fd_pr__nfet_g5v0d10v5#dbody   2.562537e-08
	m.xstartup.xmn_pu17.msky130_fd_pr__nfet_g5v0d10v5#sbody   2.312537e-08
	m.xstartup.xmn_pu17.msky130_fd_pr__nfet_g5v0d10v5#body   1.625025e-08
	m.xstartup.xmn_pu17.msky130_fd_pr__nfet_g5v0d10v5#dbody   2.562537e-08
	m.xstartup.xmn_pu18.msky130_fd_pr__nfet_g5v0d10v5#sbody   2.312537e-08
	m.xstartup.xmn_pu18.msky130_fd_pr__nfet_g5v0d10v5#body   1.625025e-08
	m.xstartup.xmn_pu18.msky130_fd_pr__nfet_g5v0d10v5#dbody   2.562537e-08
	m.xstartup.xmn_pu19.msky130_fd_pr__nfet_g5v0d10v5#sbody   2.312537e-08
	m.xstartup.xmn_pu19.msky130_fd_pr__nfet_g5v0d10v5#body   1.625025e-08
	m.xstartup.xmn_pu19.msky130_fd_pr__nfet_g5v0d10v5#dbody   2.562537e-08
	m.xstartup.xmn_pu20.msky130_fd_pr__nfet_g5v0d10v5#sbody   2.312537e-08
	m.xstartup.xmn_pu20.msky130_fd_pr__nfet_g5v0d10v5#body   1.625025e-08
	m.xstartup.xmn_pu20.msky130_fd_pr__nfet_g5v0d10v5#dbody   2.562537e-08
	m.xstartup.xmn_pu21.msky130_fd_pr__nfet_g5v0d10v5#sbody   2.312537e-08
	m.xstartup.xmn_pu21.msky130_fd_pr__nfet_g5v0d10v5#body   1.625025e-08
	m.xstartup.xmn_pu21.msky130_fd_pr__nfet_g5v0d10v5#dbody   2.562537e-08
	m.xstartup.xmn_pu22.msky130_fd_pr__nfet_g5v0d10v5#sbody   2.312537e-08
	m.xstartup.xmn_pu22.msky130_fd_pr__nfet_g5v0d10v5#body   1.625025e-08
	m.xstartup.xmn_pu22.msky130_fd_pr__nfet_g5v0d10v5#dbody   2.562537e-08
	m.xstartup.xmn_pu23.msky130_fd_pr__nfet_g5v0d10v5#sbody   2.312537e-08
	m.xstartup.xmn_pu23.msky130_fd_pr__nfet_g5v0d10v5#body   1.625025e-08
	m.xstartup.xmn_pu23.msky130_fd_pr__nfet_g5v0d10v5#dbody   2.562537e-08
	m.xstartup.xmn_pu24.msky130_fd_pr__nfet_g5v0d10v5#sbody   2.312537e-08
	m.xstartup.xmn_pu24.msky130_fd_pr__nfet_g5v0d10v5#body   1.625025e-08
	m.xstartup.xmn_pu24.msky130_fd_pr__nfet_g5v0d10v5#dbody   2.562537e-08
	m.xstartup.xmn_pu25.msky130_fd_pr__nfet_g5v0d10v5#sbody   2.312537e-08
	m.xstartup.xmn_pu25.msky130_fd_pr__nfet_g5v0d10v5#body   1.625025e-08
	m.xstartup.xmn_pu25.msky130_fd_pr__nfet_g5v0d10v5#dbody   2.562537e-08
	m.xstartup.xmn_pu26.msky130_fd_pr__nfet_g5v0d10v5#sbody   2.312537e-08
	m.xstartup.xmn_pu26.msky130_fd_pr__nfet_g5v0d10v5#body   1.625025e-08
	m.xstartup.xmn_pu26.msky130_fd_pr__nfet_g5v0d10v5#dbody   2.562537e-08
	m.xstartup.xmn_pu27.msky130_fd_pr__nfet_g5v0d10v5#sbody   2.312537e-08
	m.xstartup.xmn_pu27.msky130_fd_pr__nfet_g5v0d10v5#body   1.625025e-08
	m.xstartup.xmn_pu27.msky130_fd_pr__nfet_g5v0d10v5#dbody   2.562537e-08
	m.xstartup.xmn_pu28.msky130_fd_pr__nfet_g5v0d10v5#sbody   2.312537e-08
	m.xstartup.xmn_pu28.msky130_fd_pr__nfet_g5v0d10v5#body   1.625025e-08
	m.xstartup.xmn_pu28.msky130_fd_pr__nfet_g5v0d10v5#dbody   2.562537e-08
	m.xstartup.xmp_sd.msky130_fd_pr__pfet_g5v0d10v5#sbody   7.000000e+00
	m.xstartup.xmp_sd.msky130_fd_pr__pfet_g5v0d10v5#body   7.000000e+00
	m.xstartup.xmp_sd.msky130_fd_pr__pfet_g5v0d10v5#dbody   7.000000e+00
	m.xstartup.xmn_sd.msky130_fd_pr__nfet_g5v0d10v5#sbody   4.429261e-09
	m.xstartup.xmn_sd.msky130_fd_pr__nfet_g5v0d10v5#body   8.858521e-09
	m.xstartup.xmn_sd.msky130_fd_pr__nfet_g5v0d10v5#dbody   2.192951e-08
	m.xstartup.xmp_ea.msky130_fd_pr__pfet_g5v0d10v5#sbody   7.000000e+00
	m.xstartup.xmp_ea.msky130_fd_pr__pfet_g5v0d10v5#body   7.000000e+00
	m.xstartup.xmp_ea.msky130_fd_pr__pfet_g5v0d10v5#dbody   7.000000e+00
	m.xstartup.xmn_ea.msky130_fd_pr__nfet_g5v0d10v5#sbody   4.429261e-09
	m.xstartup.xmn_ea.msky130_fd_pr__nfet_g5v0d10v5#body   8.858521e-09
	m.xstartup.xmn_ea.msky130_fd_pr__nfet_g5v0d10v5#dbody   2.192951e-08
	ea_en                            6.999999e+00
	startup_done                     6.999999e+00
	xstartup.pull_mid                5.999361e+00
	xstartup.xr_gate.t2              5.999361e+00
	xstartup.xr_gate.t1              6.000000e+00
	xstartup.xr_pu.t2                1.922719e-03
	xstartup.xr_pu.t1                6.999982e+00
	xstartup.det_out                 1.905163e-03
	xstartup.xr_bot.t2               2.721021e-05
	xstartup.xr_bot.t1               8.990400e-01
	xstartup.sense_mid               8.990673e-01
	xstartup.xr_top.t2               8.990945e-01
	xstartup.xr_top.t1               4.999973e+00
	vref                             1.226000e+00
	gate                             6.000000e+00
	pvdd                             5.000000e+00
	bvdd                             7.000000e+00

	Source	Current
	------	-------

	vbvdd#branch                     -2.40806e-07
	vpvdd#branch                     -4.85369e-07
	vgate#branch                     -1.74001e-08
	vref#branch                      0.000000e+00

 BSIM4v5 models (Berkeley Short Channel IGFET Model-4)
      model xstartup.xmn_ea:sky13 xstartup.xmp_ea:sky13 xstartup.xmn_sd:sky13

     capmod                     2                     2                     2
     diomod                     1                     1                     1
     rdsmod                     0                     0                     0
   trnqsmod                     0                     0                     0
   acnqsmod                     0                     0                     0
     mobmod                     0                     0                     0
   rbodymod                     1                     1                     1
   rgatemod                     0                     0                     0
     permod                     1                     1                     1
     geomod                     0                     0                     0
    rgeomod                     0                     0                     0
    fnoimod                     1                     1                     1
    tnoimod                     1                     1                     1
     igcmod                     0                     0                     0
     igbmod                     0                     0                     0
    tempmod                     0                     0                     0
   paramchk                     1                     1                     1
    binunit                     2                     2                     2
    version                   4.5                   4.5                   4.5
       toxe              1.16e-08             1.175e-08              1.16e-08
       toxp              1.16e-08             1.175e-08              1.16e-08
       toxm              1.16e-08             1.175e-08              1.16e-08
     toxref              1.16e-08             1.175e-08              1.16e-08
       dtox                     0                     0                     0
     epsrox                   3.9                   3.9                   3.9
       cdsc                     0                     0                     0
      cdscb                     0                     0                     0
      cdscd                     0                     0                     0
        cit               -0.0008          -1.27312e-05               -0.0008
    nfactor               1.19404              0.463163               1.19404
         xj               1.5e-07               1.5e-07               1.5e-07
       vsat                116469               9128.49                116469
         at               7825.35               47731.2               7825.35
         a0                 1.093                0.6588                 1.093
        ags              0.229131              0.977017              0.229131
         a1                     0                     0                     0
         a2              0.659726                   0.5              0.659726
       keta              -0.01066              -0.15376              -0.01066
       nsub                 6e+16                 6e+16                 6e+16
       ndep               1.7e+17               1.7e+17               1.7e+17
        nsd                 1e+20                 1e+20                 1e+20
       phin                     0                     0                     0
      ngate                 1e+23                 1e+23                 1e+23
     gamma1                     0                     0                     0
     gamma2                     0                     0                     0
        vbx                     0                     0                     0
        vbm                    -3                    -3                    -3
         xt              1.55e-07              1.55e-07              1.55e-07
         k1               0.88325              0.590242               0.88325
        kt1               -0.3792             -0.592764               -0.3792
       kt1l                     0                     0                     0
        kt2             -0.019151             -0.019032             -0.019151
         k2            -0.0251924            0.00468799            -0.0251924
         k3                -0.884               -2.2405                -0.884
        k3b                  0.43                -0.172                  0.43
         w0                     0                     0                     0
      dvtp0                     0                     0                     0
      dvtp1                     0                     0                     0
       lpe0               2.5e-08                     0               2.5e-08
       lpeb            -2.182e-07                     0            -2.182e-07
       dvt0                     0                 4.657                     0
       dvt1                  0.53               0.34864                  0.53
       dvt2              -0.19251             -0.030206              -0.19251
      dvt0w                  0.16                  -2.2                  0.16
      dvt1w            6.9091e+06            1.0163e+06            6.9091e+06
      dvt2w             -0.036016                     0             -0.036016
      drout               0.36075              0.335842               0.36075
       dsub                 0.504              0.384694                 0.504
       vth0              0.802984              -1.26583              0.802984
         ua           -1.3788e-10          -8.31844e-10           -1.3788e-10
        ua1           6.21572e-09             5.524e-10           6.21572e-09
         ub            8.3332e-19           8.47491e-18            8.3332e-19
        ub1          -1.10308e-17           -3.5909e-18          -1.10308e-17
         uc           6.49563e-11            6.0827e-12           6.49563e-11
        uc1           -5.9821e-11            -1.092e-10           -5.9821e-11
         ud                     0                     0                     0
        ud1                     0                     0                     0
         up                     0                     0                     0
         lp                     1                     1                     1
         u0             0.0360892             0.0297664             0.0360892
         eu                  1.67                  1.67                  1.67
        ute               -1.4652              -1.39342               -1.4652
       voff              -0.20613             -0.281923              -0.20613
       minv                     0                     0                     0
      voffl          -4.25795e-07                     0          -4.25795e-07
       tnom                303.15                303.15                303.15
       cgso           2.75468e-10           1.94171e-10           2.75468e-10
       cgdo           2.75468e-10           1.94171e-10           2.75468e-10
       cgbo                     0                     0                     0
      xpart                     0                     0                     0
      delta                0.0246                  0.01                0.0246
        rsh                     1                     1                     1
       rdsw                724.62                788.47                724.62
    rdswmin                     0                     0                     0
        rsw                     0                     0                     0
        rdw                     0                     0                     0
     rdwmin                     0                     0                     0
     rswmin                     0                     0                     0
       prwg                 0.048                     0                 0.048
       prwb               0.05626              0.053538               0.05626
        prt                     0                     0                     0
       eta0                 0.032            -0.0559185                 0.032
       etab              -0.01932            0.00188632              -0.01932
       pclm              0.704757               2.02196              0.704757
    pdiblc1               0.21098              0.195862               0.21098
    pdiblc2                0.0002            -0.0336185                0.0002
    pdiblcb              -0.26831                -0.025              -0.26831
     fprout                10.125                     0                10.125
      pdits                     0                     0                     0
     pditsl                     0                     0                     0
     pditsd                     0                     0                     0
     pscbe1            9.3731e+08          -5.69877e+07            9.3731e+08
     pscbe2              1.68e-06           1.82815e-08              1.68e-06
       pvag                  1.99                     0                  1.99
        jss              0.000375            2.1483e-05              0.000375
       jsws              5.84e-11              4.02e-12              5.84e-11
      jswgs                     0                     0                     0
        pbs               0.72468                0.6587               0.72468
        njs                1.0773                1.3632                1.0773
       xtis                  0.76                    10                  0.76
        mjs                 0.295               0.33956                 0.295
      pbsws               0.29067                     1               0.29067
      mjsws              0.037586               0.24676              0.037586
     pbswgs               0.54958                     3               0.54958
     mjswgs               0.78692                  0.81               0.78692
        cjs           0.000846987           0.000779347           0.000846987
      cjsws           8.64309e-11           9.96055e-11           8.64309e-11
     cjswgs           5.47776e-11           1.47314e-10           5.47776e-11
        jsd              0.000375            2.1483e-05              0.000375
       jswd              5.84e-11              4.02e-12              5.84e-11
      jswgd                     0                     0                     0
        pbd               0.72468                0.6587               0.72468
        njd                1.0773                1.3632                1.0773
       xtid                  0.76                    10                  0.76
        mjd                 0.295               0.33956                 0.295
      pbswd               0.29067                     1               0.29067
      mjswd              0.037586               0.24676              0.037586
     pbswgd               0.54958                     3               0.54958
     mjswgd               0.78692                  0.81               0.78692
        cjd           0.000846987           0.000779347           0.000846987
      cjswd           8.64309e-11           9.96055e-11           8.64309e-11
     cjswgd           5.47776e-11           1.47314e-10           5.47776e-11
      vfbcv                    -1             -0.144689                    -1
        vfb                     0                     0                     0
        tpb              0.001344              0.001671              0.001344
        tcj            0.00067434               0.00096            0.00067434
      tpbsw            0.00099005                     0            0.00099005
      tcjsw             0.0002493                 3e-05             0.0002493
     tpbswg                     0                     0                     0
     tcjswg                     0                     0                     0
       acde                0.4176                 0.401                0.4176
       moin                    15                15.773                    15
       noff                     4                     4                     4
     voffcv               -0.4104                     0               -0.4104
       dmcg                     0                     0                     0
       dmci                     0                     0                     0
       dmdg                     0                     0                     0
      dmcgt                     0                     0                     0
        xgw                     0                     0                     0
        xgl                     0                     0                     0
       rshg                   0.1                   0.1                   0.1
      ngcon                     1                     1                     1
     xrcrg1                    12                    12                    12
     xrcrg2                     1                     1                     1
     lambda                     0                     0                     0
        vtl                     0                     0                     0
         lc                 5e-09                 5e-09                 5e-09
         xn                     3                     3                     3
   vfbsdoff                     0                     0                     0
  tvfbsdoff                     0                     0                     0
      tvoff                     0                     0                     0
    lintnoi <<NAN, error = 7>> <<NAN, error = 7>> <<NAN, error = 7>>
       lint            7.6507e-08            4.5375e-08            7.6507e-08
         ll                     0                     0                     0
        llc                     0                     0                     0
        lln                     1                     1                     1
         lw                     0                     0                     0
        lwc                     0                     0                     0
        lwn                     1                     1                     1
        lwl                     0                     0                     0
       lwlc                     0                     0                     0
       lmin                 8e-07                 8e-07                 8e-07
       lmax                 1e-06                 1e-06                 1e-06
         wr                     1                     1                     1
       wint            2.1346e-08            1.2277e-08            2.1346e-08
        dwg           -4.1292e-09           -4.7338e-09           -4.1292e-09
        dwb           -1.6944e-09                     0           -1.6944e-09
         wl                     0                     0                     0
        wlc                     0                     0                     0
        wln                     1                     1                     1
         ww                     0                     0                     0
        wwc                     0                     0                     0
        wwn                     1                     1                     1
        wwl                     0                     0                     0
       wwlc                     0                     0                     0
       wmin               1.5e-06                 3e-06               1.5e-06
       wmax                 3e-06                 5e-06                 3e-06
         b0            3.2933e-08                     0            3.2933e-08
         b1                     0                     0                     0
       cgsl           4.49025e-11           9.82591e-12           4.49025e-11
       cgdl           4.49025e-11           9.82591e-12           4.49025e-11
    ckappas                   0.6                   0.6                   0.6
    ckappad                   0.6                   0.6                   0.6
         cf                     0               1.2e-11                     0
        clc                 1e-07                 1e-07                 1e-07
        cle                   0.6                   0.6                   0.6
        dwc                     0                     0                     0
        dlc            6.5995e-08            4.4983e-08            6.5995e-08
         xw                     0                     0                     0
         xl                     0                     0                     0
      dlcig                     0                     0                     0
        dwj                     0                     0                     0
     alpha0           1.54371e-05           0.000247158           1.54371e-05
     alpha1                     0                     0                     0
      beta0               27.7785               67.1969               27.7785
      agidl              5.06e-11           4.96251e-09              5.06e-11
      bgidl             1.058e+09           7.00288e+08             1.058e+09
      cgidl                  4000              -3904.52                  4000
      egidl                   0.8               1.83556                   0.8
       aigc                  0.43                  0.43                  0.43
       bigc                 0.054                 0.054                 0.054
       cigc                 0.075                 0.075                 0.075
      aigsd                  0.43                  0.43                  0.43
      bigsd                 0.054                 0.054                 0.054
      cigsd                 0.075                 0.075                 0.075
    aigbacc                     1                  0.43                     1
    bigbacc                     0                 0.054                     0
    cigbacc                     0                 0.075                     0
    aigbinv                  0.35                  0.35                  0.35
    bigbinv                  0.03                  0.03                  0.03
    cigbinv                 0.006                 0.006                 0.006
       nigc                     1                     1                     1
    nigbinv                     3                     3                     3
    nigbacc                     1                     1                     1
       ntox                     1                     1                     1
    eigbinv                   1.1                   1.1                   1.1
      pigcd                     1                     1                     1
    poxedge                     1                     1                     1
   ijthdfwd                   0.1                   0.1                   0.1
   ijthsfwd                   0.1                   0.1                   0.1
   ijthdrev                   0.1                   0.1                   0.1
   ijthsrev                   0.1                   0.1                   0.1
      xjbvd                     1                     1                     1
      xjbvs                     1                     1                     1
        bvd                12.636                 12.69                12.636
        bvs                12.636                 12.69                12.636
       jtss                     0                     0                     0
       jtsd                     0                     0                     0
     jtssws                     0                     0                     0
     jtsswd                     0                     0                     0
    jtsswgs                     0                     0                     0
    jtsswgd                     0                     0                     0
       njts                    20                    20                    20
     njtssw                    20                    20                    20
    njtsswg                    20                    20                    20
       xtss                  0.02                  0.02                  0.02
       xtsd                  0.02                  0.02                  0.02
     xtssws                  0.02                  0.02                  0.02
     xtsswd                  0.02                  0.02                  0.02
    xtsswgs                  0.02                  0.02                  0.02
    xtsswgd                  0.02                  0.02                  0.02
      tnjts                     0                     0                     0
    tnjtssw                     0                     0                     0
   tnjtsswg                     0                     0                     0
       vtss                    10                    10                    10
       vtsd                    10                    10                    10
     vtssws                    10                    10                    10
     vtsswd                    10                    10                    10
    vtsswgs                    10                    10                    10
    vtsswgd                    10                    10                    10
      gbmin                 1e-12                 1e-12                 1e-12
       rbdb                    50                    50                    50
       rbpb                    50                    50                    50
       rbsb                    50                    50                    50
       rbps                    50                    50                    50
       rbpd                    50                    50                    50
      rbps0                    50                    50                    50
      rbpsl                     0                     0                     0
      rbpsw                     0                     0                     0
     rbpsnf                     0                     0                     0
      rbpd0                    50                    50                    50
      rbpdl                     0                     0                     0
      rbpdw                     0                     0                     0
     rbpdnf                     0                     0                     0
     rbpbx0                   100                   100                   100
     rbpbxl                     0                     0                     0
     rbpbxw                     0                     0                     0
    rbpbxnf                     0                     0                     0
     rbpby0                   100                   100                   100
     rbpbyl                     0                     0                     0
     rbpbyw                     0                     0                     0
    rbpbynf                     0                     0                     0
     rbsbx0                   100                   100                   100
     rbsby0                   100                   100                   100
     rbdbx0                   100                   100                   100
     rbdby0                   100                   100                   100
    rbsdbxl                     0                     0                     0
    rbsdbxw                     0                     0                     0
   rbsdbxnf                     0                     0                     0
    rbsdbyl                     0                     0                     0
    rbsdbyw                     0                     0                     0
   rbsdbynf                     0                     0                     0
      lcdsc                     0                     0                     0
     lcdscb                     0                     0                     0
     lcdscd                     0                     0                     0
       lcit                     0           1.61221e-11                     0
   lnfactor          -3.27034e-07           8.68893e-07          -3.27034e-07
        lxj                     0                     0                     0
      lvsat            -0.0147038              0.035243            -0.0147038
        lat             0.0136997            -0.0161221             0.0136997
        la0           1.88892e-08           1.31005e-07           1.88892e-08
       lags          -4.45651e-08          -1.81495e-07          -4.45651e-08
        la1                     0                     0                     0
        la2                     0                     0                     0
      lketa                     0           6.28183e-08                     0
      lnsub                     0                     0                     0
      lndep                     0                     0                     0
       lnsd                     0                     0                     0
      lphin                     0                     0                     0
     lngate                     0                     0                     0
    lgamma1                     0                     0                     0
    lgamma2                     0                     0                     0
       lvbx                     0                     0                     0
       lvbm                     0                     0                     0
        lxt                     0                     0                     0
        lk1                     0          -9.86675e-09                     0
       lkt1           5.47988e-09          -3.38565e-08           5.47988e-09
      lkt1l                     0                     0                     0
       lkt2                     0                     0                     0
        lk2           6.67455e-10           2.21853e-08           6.67455e-10
        lk3                     0                     0                     0
       lk3b                     0                     0                     0
        lw0                     0                     0                     0
     ldvtp0                     0                     0                     0
     ldvtp1                     0                     0                     0
      llpe0                     0                     0                     0
      llpeb                     0                     0                     0
      ldvt0                     0                     0                     0
      ldvt1                     0                     0                     0
      ldvt2                     0                     0                     0
     ldvt0w                     0                     0                     0
     ldvt1w                     0                     0                     0
     ldvt2w                     0                     0                     0
     ldrout                     0           6.80546e-08                     0
      ldsub                     0          -7.79255e-08                     0
      lvth0          -2.21321e-09           2.13085e-07          -2.21321e-09
        lua          -8.40042e-18            2.2584e-15          -8.40042e-18
       lua1          -2.71994e-15                     0          -2.71994e-15
        lub           8.13469e-25          -6.16059e-24           8.13469e-25
       lub1           6.66559e-24                     0           6.66559e-24
        luc            1.0568e-18          -6.06302e-18            1.0568e-18
       luc1                     0                     0                     0
        lud                     0                     0                     0
       lud1                     0                     0                     0
        lup                     0                     0                     0
        llp                     0                     0                     0
        lu0           5.81765e-09          -7.75838e-09           5.81765e-09
       lute           1.41107e-07          -6.12641e-08           1.41107e-07
      lvoff                     0           1.48305e-07                     0
      lminv                     0                     0                     0
     ldelta                     0                     0                     0
      lrdsw                     0                     0                     0
       lrsw                     0                     0                     0
       lrdw                     0                     0                     0
      lprwg                     0                     0                     0
      lprwb                     0                     0                     0
       lprt                     0                     0                     0
      leta0                     0           4.01649e-08                     0
      letab                    -0          -1.71514e-09                    -0
      lpclm           -4.6605e-08          -7.44536e-07           -4.6605e-08
   lpdiblc1                     0           1.85182e-07                     0
   lpdiblc2                     0           3.19371e-08                     0
   lpdiblcb                     0                     0                     0
    lfprout                     0                     0                     0
     lpdits                     0                     0                     0
    lpditsd                     0                     0                     0
    lpscbe1                     0               324.119                     0
    lpscbe2                     0          -3.38873e-15                     0
      lpvag                     0                     0                     0
        lwr                     0                     0                     0
       ldwg                     0                     0                     0
       ldwb                     0                     0                     0
        lb0                     0                     0                     0
        lb1                     0                     0                     0
      lcgsl                     0                     0                     0
      lcgdl                     0                     0                     0
   lckappas                     0                     0                     0
   lckappad                     0                     0                     0
        lcf                     0                     0                     0
       lclc                     0                     0                     0
       lcle                     0                     0                     0
    lalpha0          -4.52695e-12          -1.63069e-10          -4.52695e-12
    lalpha1                     0                     0                     0
     lbeta0           4.05503e-06          -1.54972e-05           4.05503e-06
     lagidl                     0           8.32907e-15                     0
     lbgidl                     0               785.148                     0
     lcgidl                     0            0.00313809                     0
     legidl                     0          -9.60693e-07                     0
      laigc                     0                     0                     0
      lbigc                     0                     0                     0
      lcigc                     0                     0                     0
     laigsd                     0                     0                     0
     lbigsd                     0                     0                     0
     lcigsd                     0                     0                     0
   laigbacc                     0                     0                     0
   lbigbacc                     0                     0                     0
   lcigbacc                     0                     0                     0
   laigbinv                     0                     0                     0
   lbigbinv                     0                     0                     0
   lcigbinv                     0                     0                     0
      lnigc                     0                     0                     0
   lnigbinv                     0                     0                     0
   lnigbacc                     0                     0                     0
      lntox                     0                     0                     0
   leigbinv                     0                     0                     0
     lpigcd                     0                     0                     0
   lpoxedge                     0                     0                     0
     lvfbcv                     0                     0                     0
       lvfb                     0                     0                     0
      lacde                     0                     0                     0
      lmoin                     0                     0                     0
      lnoff                     0                     0                     0
    lvoffcv                     0                     0                     0
    lxrcrg1                     0                     0                     0
    lxrcrg2                     0                     0                     0
    llambda <<NAN, error = 7>> <<NAN, error = 7>> <<NAN, error = 7>>
       lvtl <<NAN, error = 7>> <<NAN, error = 7>> <<NAN, error = 7>>
        lxn <<NAN, error = 7>> <<NAN, error = 7>> <<NAN, error = 7>>
        leu                     0                     0                     0
  lvfbsdoff                     0                     0                     0
 ltvfbsdoff                     0                     0                     0
     ltvoff                     0                     0                     0
      wcdsc                     0                     0                     0
     wcdscb                     0                     0                     0
     wcdscd                     0                     0                     0
       wcit                     0                     0                     0
   wnfactor          -5.79551e-07           3.46175e-06          -5.79551e-07
        wxj                     0                     0                     0
      wvsat            -0.0402171                     0            -0.0402171
        wat                     0                     0                     0
        wa0           2.43959e-08           5.88111e-07           2.43959e-08
       wags           -1.1612e-07          -1.01258e-06           -1.1612e-07
        wa1                     0                     0                     0
        wa2                     0                     0                     0
      wketa                     0                     0                     0
      wnsub                     0                     0                     0
      wndep                     0                     0                     0
       wnsd                     0                     0                     0
      wphin                     0                     0                     0
     wngate                     0                     0                     0
    wgamma1                     0                     0                     0
    wgamma2                     0                     0                     0
       wvbx                     0                     0                     0
       wvbm                     0                     0                     0
        wxt                     0                     0                     0
        wk1                     0                     0                     0
       wkt1                     0                     0                     0
      wkt1l                     0                     0                     0
       wkt2                     0                     0                     0
        wk2          -1.30504e-08           4.02267e-08          -1.30504e-08
        wk3                     0                     0                     0
       wk3b                     0                     0                     0
        ww0                     0                     0                     0
     wdvtp0                     0                     0                     0
     wdvtp1                     0                     0                     0
      wlpe0                     0                     0                     0
      wlpeb                     0                     0                     0
      wdvt0                     0                     0                     0
      wdvt1                     0                     0                     0
      wdvt2                     0                     0                     0
     wdvt0w                     0                     0                     0
     wdvt1w                     0                     0                     0
     wdvt2w                     0                     0                     0
     wdrout                     0                     0                     0
      wdsub                     0          -1.68259e-11                     0
      wvth0          -1.64557e-08            1.0005e-06          -1.64557e-08
        wua          -3.14749e-17          -4.43271e-17          -3.14749e-17
       wua1                     0                     0                     0
        wub           8.62189e-25          -1.44634e-23           8.62189e-25
       wub1           1.40775e-24                     0           1.40775e-24
        wuc           3.68988e-18          -3.08149e-33           3.68988e-18
       wuc1                     0                     0                     0
        wud                     0                     0                     0
       wud1                     0                     0                     0
        wup                     0                     0                     0
        wlp                     0                     0                     0
        wu0           6.28439e-09          -5.51586e-08           6.28439e-09
       wute                     0                     0                     0
      wvoff                     0           5.55422e-07                     0
      wminv                     0                     0                     0
     wdelta                     0                     0                     0
      wrdsw                     0                     0                     0
       wrsw                     0                     0                     0
       wrdw                     0                     0                     0
      wprwg                     0                     0                     0
      wprwb                     0                     0                     0
       wprt                     0                     0                     0
      weta0                     0           2.77573e-07                     0
      wetab                     0                     0                     0
      wpclm           1.26382e-06                     0           1.26382e-06
   wpdiblc1                     0                     0                     0
   wpdiblc2                     0          -1.98523e-23                     0
   wpdiblcb                     0                     0                     0
    wfprout                     0                     0                     0
     wpdits                     0                     0                     0
    wpditsd                     0                     0                     0
    wpscbe1                     0                     0                     0
    wpscbe2                     0                     0                     0
      wpvag                     0                     0                     0
        wwr                     0                     0                     0
       wdwg                     0                     0                     0
       wdwb                     0                     0                     0
        wb0                     0                     0                     0
        wb1                     0                     0                     0
      wcgsl                     0                     0                     0
      wcgdl                     0                     0                     0
   wckappas                     0                     0                     0
   wckappad                     0                     0                     0
        wcf                     0                     0                     0
       wclc                     0                     0                     0
       wcle                     0                     0                     0
    walpha0          -3.87709e-12                     0          -3.87709e-12
    walpha1                     0                     0                     0
     wbeta0           4.25867e-06                     0           4.25867e-06
     wagidl                     0          -1.09684e-13                     0
     wbgidl                     0                     0                     0
     wcgidl                     0             0.0185758                     0
     wegidl                     0                     0                     0
      waigc                     0                     0                     0
      wbigc                     0                     0                     0
      wcigc                     0                     0                     0
     waigsd                     0                     0                     0
     wbigsd                     0                     0                     0
     wcigsd                     0                     0                     0
   waigbacc                     0                     0                     0
   wbigbacc                     0                     0                     0
   wcigbacc                     0                     0                     0
   waigbinv                     0                     0                     0
   wbigbinv                     0                     0                     0
   wcigbinv                     0                     0                     0
      wnigc                     0                     0                     0
   wnigbinv                     0                     0                     0
   wnigbacc                     0                     0                     0
      wntox                     0                     0                     0
   weigbinv                     0                     0                     0
     wpigcd                     0                     0                     0
   wpoxedge                     0                     0                     0
     wvfbcv                     0                     0                     0
       wvfb                     0                     0                     0
      wacde                     0                     0                     0
      wmoin                     0                     0                     0
      wnoff                     0                     0                     0
    wvoffcv                     0                     0                     0
    wxrcrg1                     0                     0                     0
    wxrcrg2                     0                     0                     0
    wlambda <<NAN, error = 7>> <<NAN, error = 7>> <<NAN, error = 7>>
       wvtl <<NAN, error = 7>> <<NAN, error = 7>> <<NAN, error = 7>>
        wxn <<NAN, error = 7>> <<NAN, error = 7>> <<NAN, error = 7>>
        weu                     0                     0                     0
  wvfbsdoff                     0                     0                     0
 wtvfbsdoff                     0                     0                     0
     wtvoff                     0                     0                     0
      pcdsc                     0                     0                     0
     pcdscb                     0                     0                     0
     pcdscd                     0                     0                     0
       pcit                     0                     0                     0
   pnfactor           6.61582e-13          -2.45525e-12           6.61582e-13
        pxj                     0                     0                     0
      pvsat            3.9052e-08                     0            3.9052e-08
        pat                     0                     0                     0
        pa0          -1.57838e-14          -4.17118e-13          -1.57838e-14
       pags           7.51278e-14           7.18171e-13           7.51278e-14
        pa1                     0                     0                     0
        pa2                     0                     0                     0
      pketa                     0                     0                     0
      pnsub                     0                     0                     0
      pndep                     0                     0                     0
       pnsd                     0                     0                     0
      pphin                     0                     0                     0
     pngate                     0                     0                     0
    pgamma1                     0                     0                     0
    pgamma2                     0                     0                     0
       pvbx                     0                     0                     0
       pvbm                     0                     0                     0
        pxt                     0                     0                     0
        pk1                     0                     0                     0
       pkt1                     0                     0                     0
      pkt1l                     0                     0                     0
       pkt2                     0                     0                     0
        pk2           1.31388e-14          -2.85308e-14           1.31388e-14
        pk3                     0                     0                     0
       pk3b                     0                     0                     0
        pw0                     0                     0                     0
     pdvtp0                     0                     0                     0
     pdvtp1                     0                     0                     0
      plpe0                     0                     0                     0
      plpeb                     0                     0                     0
      pdvt0                     0                     0                     0
      pdvt1                     0                     0                     0
      pdvt2                     0                     0                     0
     pdvt0w                     0                     0                     0
     pdvt1w                     0                     0                     0
     pdvt2w                     0                     0                     0
     pdrout                     0                     0                     0
      pdsub                     0           1.19337e-17                     0
      pvth0            2.7726e-14          -7.09604e-13            2.7726e-14
        pua           2.67428e-23            3.1439e-23           2.67428e-23
       pua1                     0                     0                     0
        pub          -8.26191e-31           1.02582e-29          -8.26191e-31
       pub1           -1.9224e-30                     0           -1.9224e-30
        puc          -3.12528e-24           2.93874e-39          -3.12528e-24
       puc1                     0                     0                     0
        pud                     0                     0                     0
       pud1                     0                     0                     0
        pup                     0                     0                     0
        plp                     0                     0                     0
        pu0          -7.35014e-15           3.91212e-14          -7.35014e-15
       pute                     0                     0                     0
      pvoff                     0          -3.93933e-13                     0
      pminv                     0                     0                     0
     pdelta                     0                     0                     0
      prdsw                     0                     0                     0
       prsw                     0                     0                     0
       prdw                     0                     0                     0
      pprwg                     0                     0                     0
      pprwb                     0                     0                     0
       pprt                     0                     0                     0
      peta0                     0          -1.96869e-13                     0
      petab                     0                     0                     0
      ppclm          -4.45175e-13                     0          -4.45175e-13
   ppdiblc1                     0                     0                     0
   ppdiblc2                     0           6.31089e-30                     0
   ppdiblcb                     0                     0                     0
    pfprout                     0                     0                     0
     ppdits                     0                     0                     0
    ppditsd                     0                     0                     0
    ppscbe1                     0                     0                     0
    ppscbe2                     0                     0                     0
      ppvag                     0                     0                     0
        pwr                     0                     0                     0
       pdwg                     0                     0                     0
       pdwb                     0                     0                     0
        pb0                     0                     0                     0
        pb1                     0                     0                     0
      pcgsl                     0                     0                     0
      pcgdl                     0                     0                     0
   pckappas                     0                     0                     0
   pckappad                     0                     0                     0
        pcf                     0                     0                     0
       pclc                     0                     0                     0
       pcle                     0                     0                     0
    palpha0           2.51124e-17           1.97215e-31           2.51124e-17
    palpha1                     0                     0                     0
     pbeta0          -7.87223e-15                     0          -7.87223e-15
     pagidl                     0           7.77937e-20                     0
     pbgidl                     0                     0                     0
     pcgidl                     0          -1.31749e-08                     0
     pegidl                     0                     0                     0
      paigc                     0                     0                     0
      pbigc                     0                     0                     0
      pcigc                     0                     0                     0
     paigsd                     0                     0                     0
     pbigsd                     0                     0                     0
     pcigsd                     0                     0                     0
   paigbacc                     0                     0                     0
   pbigbacc                     0                     0                     0
   pcigbacc                     0                     0                     0
   paigbinv                     0                     0                     0
   pbigbinv                     0                     0                     0
   pcigbinv                     0                     0                     0
      pnigc                     0                     0                     0
   pnigbinv                     0                     0                     0
   pnigbacc                     0                     0                     0
      pntox                     0                     0                     0
   peigbinv                     0                     0                     0
     ppigcd                     0                     0                     0
   ppoxedge                     0                     0                     0
     pvfbcv                     0                     0                     0
       pvfb                     0                     0                     0
      pacde                     0                     0                     0
      pmoin                     0                     0                     0
      pnoff                     0                     0                     0
    pvoffcv                     0                     0                     0
    pxrcrg1                     0                     0                     0
    pxrcrg2                     0                     0                     0
    plambda <<NAN, error = 7>> <<NAN, error = 7>> <<NAN, error = 7>>
       pvtl <<NAN, error = 7>> <<NAN, error = 7>> <<NAN, error = 7>>
        pxn <<NAN, error = 7>> <<NAN, error = 7>> <<NAN, error = 7>>
        peu                     0                     0                     0
  pvfbsdoff                     0                     0                     0
 ptvfbsdoff                     0                     0                     0
     ptvoff                     0                     0                     0
      saref              2.41e-06              2.41e-06              2.41e-06
      sbref              2.41e-06              2.41e-06              2.41e-06
       wlod                     0                     0                     0
        ku0                     0                     0                     0
      kvsat                     0                     0                     0
      kvth0                     0                     0                     0
       tku0                     0                     0                     0
    llodku0                     0                     0                     0
    wlodku0                     1                     1                     1
    llodvth                     0                     0                     0
[...]
        cbd          -7.63284e-22          -7.63284e-22          -7.63284e-22
        cbs          -5.44939e-17          -5.44939e-17          -5.44939e-17
        cdg          -1.28406e-16          -1.28406e-16          -1.28406e-16
        cdd           1.13609e-20           1.13609e-20           1.13609e-20
        cds           1.44721e-16           1.44721e-16           1.44721e-16
        csg          -1.92489e-16          -1.92489e-16          -1.92489e-16
        csd          -3.89119e-21          -3.89119e-21          -3.89119e-21
        css           2.16967e-16           2.16967e-16           2.16967e-16
        cgb          -3.68449e-14          -3.68449e-14          -3.68449e-14
        cdb          -1.63263e-17          -1.63263e-17          -1.63263e-17
        csb          -2.44736e-17          -2.44736e-17          -2.44736e-17
        cbb           3.68857e-14           3.68857e-14           3.68857e-14
      capbd           6.96904e-16           6.96904e-16           6.96904e-16
      capbs           7.79352e-16           7.79352e-16           7.79352e-16
         qg           4.96706e-13           4.96706e-13           4.96706e-13
         qb          -4.96677e-13          -4.96677e-13          -4.96677e-13
         qd          -1.16081e-17          -1.16081e-17          -1.16081e-17
         qs          -1.74013e-17          -1.74013e-17          -1.74013e-17
       qinv                     0                     0                     0
       qdef                     0                     0                     0
       gcrg                     0                     0                     0
       gtau                     0                     0                     0

 BSIM4v5: Berkeley Short Channel IGFET Model-4
     device m.xstartup.xmn_pu2.ms m.xstartup.xmn_pu1.ms m.xstartup.xmn_gate.m
      model xstartup.xmn_pu2:sky1 xstartup.xmn_pu1:sky1 xstartup.xmn_gate:sky
          l                 1e-06                 1e-06                 2e-05
          w                0.0001                0.0001               4.2e-07
          m                     1                     1                     1
         nf                     1                     1                     1
         sa                     0                     0                     0
         sb                     0                     0                     0
         sd                     0                     0                     0
        sca                     0                     0                     0
        scb                     0                     0                     0
        scc                     0                     0                     0
         sc                     0                     0                     0
        min                     0                     0                     0
         ad                     0                     0                     0
         as                     0                     0                     0
         pd                     0                     0                     0
         ps                     0                     0                     0
        nrd                     0                     0                     0
        nrs                     0                     0                     0
        off                     0                     0                     0
       rbdb                    50                    50                    50
       rbsb                    50                    50                    50
       rbpb                    50                    50                    50
       rbps                    50                    50                    50
       rbpd                    50                    50                    50
     delvto                     0                     0                     0
      mulu0                     1                     1                     1
        xgw                     0                     0                     0
      ngcon                     1                     1                     1
   trnqsmod                     0                     0                     0
   acnqsmod                     0                     0                     0
   rbodymod                     1                     1                     1
   rgatemod                     0                     0                     0
     geomod                     0                     0                     0
    rgeomod                     0                     0                     0
       gmbs           2.42871e-14           2.42871e-14           4.78266e-16
         gm           1.88007e-13           1.88007e-13           8.33554e-16
        gds           9.11504e-16           9.11504e-16           2.21652e-19
      vdsat             0.0554381             0.0554381             0.0341987
        vth               1.96271               1.96271              0.784882
         id           8.34271e-15           8.34271e-15           2.78596e-17
        ibd           -7.0001e-10           -7.0001e-10          -5.99946e-10
        ibs           -6.0001e-10           -6.0001e-10           3.76483e-19
        gbd                 1e-10                 1e-10                 1e-10
        gbs                 1e-10                 1e-10           1.00359e-10
       isub           2.31033e-28           2.31033e-28           5.36097e-18
      igidl                     0                     0           1.36308e-13
      igisl                     0                     0                     0
        igs                     0                     0                     0
        igd                     0                     0                     0
        igb                     0                     0                     0
       igcs                     0                     0                     0
       igcd                     0                     0                     0
        vbs                    -6                    -6           7.50273e-09
        vgs                     1                     1            0.00190516
        vds                     1                     1               5.99936
        cgg           3.71521e-14           3.71521e-14           1.04792e-14
        cgs          -3.07194e-16          -3.07194e-16          -6.40734e-16
        cgd          -6.70641e-21          -6.70641e-21          -2.64186e-22
        cbg          -3.68312e-14          -3.68312e-14          -9.66441e-15
        cbd          -7.63284e-22          -7.63284e-22          -1.51949e-22
        cbs          -5.44939e-17          -5.44939e-17          -6.38185e-16
        cdg          -1.28406e-16          -1.28406e-16          -3.25912e-16
        cdd           1.13609e-20           1.13609e-20           3.32494e-22
        cds           1.44721e-16           1.44721e-16           5.11573e-16
        csg          -1.92489e-16          -1.92489e-16          -4.88859e-16
        csd          -3.89119e-21          -3.89119e-21           8.36404e-23
        css           2.16967e-16           2.16967e-16           7.67346e-16
        cgb          -3.68449e-14          -3.68449e-14          -9.83845e-15
        cdb          -1.63263e-17          -1.63263e-17          -1.85661e-16
        csb          -2.44736e-17          -2.44736e-17          -2.78486e-16
        cbb           3.68857e-14           3.68857e-14           1.03026e-14
      capbd           6.96904e-16           6.96904e-16           3.27353e-18
      capbs           7.79352e-16           7.79352e-16          -1.32673e-17
         qg           4.96706e-13           4.96706e-13           1.13102e-14
         qb          -4.96677e-13          -4.96677e-13          -1.11964e-14
         qd          -1.16081e-17          -1.16081e-17          -4.55055e-17
         qs          -1.74013e-17          -1.74013e-17           -6.8257e-17
       qinv                     0                     0                     0
       qdef                     0                     0                     0
       gcrg                     0                     0                     0
       gtau                     0                     0                     0

 BSIM4v5: Berkeley Short Channel IGFET Model-4
     device m.xstartup.xmn_det.ms
      model xstartup.xmn_det:sky1
          l                 1e-06
          w                 1e-05
          m                     1
         nf                     1
         sa                     0
         sb                     0
         sd                     0
        sca                     0
        scb                     0
        scc                     0
         sc                     0
        min                     0
         ad                     0
         as                     0
         pd                     0
         ps                     0
        nrd                     0
        nrs                     0
        off                     0
       rbdb                    50
       rbsb                    50
       rbpb                    50
       rbps                    50
       rbpd                    50
     delvto                     0
      mulu0                     1
        xgw                     0
      ngcon                     1
   trnqsmod                     0
   acnqsmod                     0
   rbodymod                     1
   rgatemod                     0
     geomod                     0
    rgeomod                     0
       gmbs           8.22894e-07
         gm           2.06143e-06
        gds           0.000114192
      vdsat              0.103072
        vth              0.812549
         id           2.19796e-07
        ibd          -1.91177e-13
        ibs           1.19915e-22
        gbd           1.00335e-10
        gbs           1.00359e-10
       isub           2.19953e-24
      igidl                     0
      igisl                     0
        igs                     0
        igd                     0
        igb                     0
       igcs                     0
       igcd                     0
        vbs           2.38971e-12
        vgs              0.899067
        vds            0.00190516
        cgg           2.39101e-14
        cgs          -9.36625e-15
        cgd          -1.16855e-14
        cbg          -1.82869e-16
        cbd          -9.08383e-15
        cbs          -3.00166e-15
        cdg          -1.18626e-14
        cdd           1.38542e-14
        cds           2.71175e-15
        csg          -1.18646e-14
        csd           6.91516e-15
        css           9.65616e-15
        cgb          -2.85835e-15
        cdb          -4.70331e-15
        csb           -4.7067e-15
        cbb           1.22684e-14
      capbd           5.46286e-16
      capbs          -3.15887e-16
         qg           2.69266e-14
         qb          -1.53518e-14
         qd          -5.78083e-15
         qs          -5.79405e-15
       qinv                     0
       qdef                     0
       gcrg                     0
       gtau                     0

 Capacitor: Fixed capacitor
     device c.xstartup.xr_gate.xc c.xstartup.xr_gate.xc c.xstartup.xr_pu.xc0.
      model                     C                     C                     C
capacitance             2.505e-14             2.505e-14            7.5005e-13
      dtemp                     0                     0                     0
     bv_max                 1e+99                 1e+99                 1e+99
          i                     0                     0                     0
          p                     0                     0                     0

 Capacitor: Fixed capacitor
     device c.xstartup.xr_pu.xc0. c.xstartup.xr_bot.xc0 c.xstartup.xr_bot.xc0
      model                     C                     C                     C
capacitance            7.5005e-13               1.8e-13               1.8e-13
      dtemp                     0                     0                     0
     bv_max                 1e+99                 1e+99                 1e+99
          i                     0                     0                     0
          p                     0                     0                     0

 Capacitor: Fixed capacitor
     device c.xstartup.xr_top.xc0 c.xstartup.xr_top.xc0
      model                     C                     C
capacitance               8.2e-13               8.2e-13
      dtemp                     0                     0
     bv_max                 1e+99                 1e+99
          i                     0                     0
          p                     0                     0

 Resistor: Simple linear resistor
     device r.xstartup.xr_gate.re r.xstartup.xr_gate.re r.xstartup.xr_pu.rend
      model xstartup.xr_gate:resh xstartup.xr_gate:resh xstartup.xr_pu:reshea
 resistance                79.949                79.949                79.949
         ac                79.949                79.949                79.949
      dtemp                     0                     0                     0
     bv_max                 1e+99                 1e+99                 1e+99
      noisy                     1                     1                     1
          i           6.00082e-10           6.00082e-10           2.19796e-07
          p           2.87633e-17           2.87633e-17           3.85883e-12

 Resistor: Simple linear resistor
     device r.xstartup.xr_pu.rend r.xstartup.xr_bot.ren r.xstartup.xr_bot.ren
      model xstartup.xr_pu:reshea xstartup.xr_bot:reshe xstartup.xr_bot:reshe
 resistance                79.949               56.1121               56.1121
         ac                79.949               56.1121               56.1121
      dtemp                     0                     0                     0
     bv_max                 1e+99                 1e+99                 1e+99
      noisy                     1                     1                     1
          i           2.19796e-07           4.85369e-07           4.85369e-07
          p           3.85883e-12            1.3207e-11            1.3207e-11

 Resistor: Simple linear resistor
     device r.xstartup.xr_top.ren r.xstartup.xr_top.ren
      model xstartup.xr_top:reshe xstartup.xr_top:reshe
 resistance               56.1121               56.1121
         ac               56.1121               56.1121
      dtemp                     0                     0
     bv_max                 1e+99                 1e+99
      noisy                     1                     1
          i           4.85369e-07           4.85369e-07
          p            1.3207e-11            1.3207e-11

 Vsource: Independent voltage source
     device                  vref                 vgate                 vpvdd
         dc                 1.226                     6                     5
      acmag                     0                     0                     0
      pulse         -         -         -
        sin         -         -         -
        exp         -         -         -
        pwl         -         -         -
       sffm         -         -         -
         am         -         -         -
    trnoise         -         -         -
   trrandom         -         -         -
    portnum                     0                     0                     0
         z0                     0                     0                     0
        pwr                     0                     0                     0
       freq                     0                     0                     0
      phase                     0                     0                     0
          i                     0          -1.74001e-08          -4.85369e-07
          p                     0          -1.04401e-07          -2.42684e-06

 Vsource: Independent voltage source
     device                 vbvdd
         dc                     7
      acmag                     0
      pulse         -
        sin         -
        exp         -
        pwl         -
       sffm         -
         am         -
    trnoise         -
   trrandom         -
    portnum                     0
         z0                     0
        pwr                     0
       freq                     0
      phase                     0
          i          -2.40806e-07
          p          -1.68564e-06


Total analysis time (seconds) = 0.006

Total elapsed time (seconds) = 0.562 

Total DRAM available = 3834.176 MB.
DRAM currently available =  259.207 MB.
Maximum ngspice program size =   45.992 MB.
Current ngspice program size =   29.336 MB.

Shared ngspice pages =   10.664 MB.
Text (code) pages =    6.156 MB.
Stack = 0 bytes.
Library pages =   26.746 MB.


--- Running tb_su_pvt.spice ---
Using SPARSE 1.3 as Direct Linear Solver

Note: No compatibility mode selected!


Circuit: * tb_su_pvt.spice — pvt corner analysis

Doing analysis at TEMP = 27.000000 and TNOM = 27.000000

Using transient initial conditions
 Reference value :  1.00000e-09 Reference value :  1.99500e-05 Reference value :  4.73500e-05 Reference value :  7.27500e-05 Reference value :  9.39500e-05 Reference value :  1.21450e-04 Reference value :  1.49650e-04 Reference value :  1.76250e-04Using SPARSE 1.3 as Direct Linear Solver

No. of Data Rows : 2027
pvdd_max_tt27       =  6.999871e+00 at=  7.070000e-06
TT 27C: peak=6.99987 V, final=5.95747 V
Reset re-loads circuit * tb_su_pvt.spice — pvt corner analysis

Circuit: * tb_su_pvt.spice — pvt corner analysis

Doing analysis at TEMP = -40.000000 and TNOM = 27.000000

Using transient initial conditions
 Reference value :  1.00000e-09 Reference value :  1.81366e-05 Reference value :  4.62366e-05 Reference value :  7.21366e-05 Reference value :  9.90366e-05 Reference value :  1.20637e-04 Reference value :  1.46237e-04 Reference value :  1.73037e-04Using SPARSE 1.3 as Direct Linear Solver

No. of Data Rows : 2030
pvdd_max_m40        =  6.999859e+00 at=  3.113661e-05
TT -40C: peak=6.99986 V
Reset re-loads circuit * tb_su_pvt.spice — pvt corner analysis

Circuit: * tb_su_pvt.spice — pvt corner analysis

Doing analysis at TEMP = 150.000000 and TNOM = 27.000000

Using transient initial conditions
 Reference value :  1.00000e-09 Reference value :  1.30500e-05 Reference value :  3.91500e-05 Reference value :  6.74500e-05 Reference value :  9.33500e-05 Reference value :  1.21250e-04 Reference value :  1.49650e-04 Reference value :  1.67650e-04 Reference value :  1.95750e-04Warning from checkvalid: vector pm40 is not available or has zero length.
Error: RHS "(pm40 - 5.0) * 1000" invalid
Warning from checkvalid: vector ovs_m40 is not available or has zero length.

No. of Data Rows : 2027
pvdd_max_150        =  6.999760e+00 at=  7.070000e-06
TT 150C: peak=6.99976 V, final=6.15317 V
works_ss_150c: 1
no_latch_stuck: 1
no_overshoot_ff_m40: 1
startup_time_ss150_us: 0
Note: Simulation executed from .control section 

--- Evaluation ---
---
* startup_time_ss150_us                     0  us        (spec <= 100.0)  PASS
  startup_time_50mA_us                      5  us        (spec <= 200.0)  PASS
  pvdd_monotonic                            1  bool      (spec >= 1.0)  PASS
  pvdd_overshoot_mV                     184.5  mV        (spec <= 200.0)  PASS
  handoff_glitch_mV                        50  mV        (spec <= 100.0)  PASS
  works_slow_ramp                           1  bool      (spec >= 1.0)  PASS
  works_fast_ramp                           1  bool      (spec >= 1.0)  PASS
  cold_crank_ok                             1  bool      (spec >= 1.0)  PASS
  leakage_after_uA                     0.2408  uA        (spec <= 1.0)  PASS
  no_overshoot_ff_m40                       1  bool      (spec >= 1.0)  PASS
  no_latch_stuck                            1  bool      (spec >= 1.0)  PASS
specs_pass: 11/11
primary (startup_time_ss150_us): 0

Run finished: Sun Mar 29 18:57:34 UTC 2026
