=== Block 09: Startup Circuit ===
Run started: Mon Mar 30 07:50:48 UTC 2026

--- Running tb_su_basic.spice ---
Using SPARSE 1.3 as Direct Linear Solver

Note: No compatibility mode selected!


Circuit: * tb_su_basic.spice — basic startup test, tt 27c, 1v/us, no load

Doing analysis at TEMP = 27.000000 and TNOM = 27.000000

Using transient initial conditions
 Reference value :  1.00000e-09 Reference value :  1.86165e-05 Reference value :  4.48165e-05 Reference value :  7.08165e-05 Reference value :  9.68165e-05 Reference value :  1.22816e-04 Reference value :  1.48516e-04 Reference value :  1.74716e-04 Reference value :  2.00716e-04 Reference value :  2.26716e-04 Reference value :  2.52916e-04 Reference value :  2.79116e-04 Reference value :  3.05416e-04 Reference value :  3.31516e-04 Reference value :  3.57616e-04 Reference value :  3.83816e-04 Reference value :  4.08716e-04 Reference value :  4.34816e-04 Reference value :  4.58116e-04 Reference value :  4.76816e-04 Reference value :  5.02816e-04 Reference value :  5.29016e-04 Reference value :  5.55016e-04 Reference value :  5.80916e-04 Reference value :  6.06716e-04 Reference value :  6.31716e-04 Reference value :  6.53916e-04 Reference value :  6.80316e-04 Reference value :  7.06316e-04 Reference value :  7.32516e-04 Reference value :  7.57816e-04 Reference value :  7.83816e-04
No. of Data Rows : 8025

  Measurements for Transient Analysis

t_bvdd_56           =   5.60000e-06
t_pvdd_settle       =   2.53190e-04
pvdd_max            =  5.168482e+00 at=  4.640165e-04

Warning from checkvalid: vector t_pvdd_settle is not available or has zero length.
Using SPARSE 1.3 as Direct Linear Solver
startup_time_basic_us: 999
pvdd_overshoot_mV: 168.482
pvdd_peak_V: 5.16848
min_dpvdd_V_per_s: -4777.64
pvdd_monotonic: 1
pvdd_final          =  4.978087e+00
pvdd_final_V: 4.97809
no_latch_stuck: 1
Doing analysis at TEMP = 27.000000 and TNOM = 27.000000

Using transient initial conditions
 Reference value :  2.71061e-06 Reference value :  1.70165e-05 Reference value :  4.33165e-05 Reference value :  6.94165e-05 Reference value :  9.57165e-05 Reference value :  1.22116e-04 Reference value :  1.48416e-04 Reference value :  1.74616e-04 Reference value :  1.92516e-04 Reference value :  2.18916e-04 Reference value :  2.45216e-04 Reference value :  2.71216e-04 Reference value :  2.97616e-04 Reference value :  3.24016e-04 Reference value :  3.50216e-04 Reference value :  3.68616e-04 Reference value :  3.95116e-04 Reference value :  4.21416e-04 Reference value :  4.47716e-04 Reference value :  4.74016e-04 Reference value :  4.99816e-04 Reference value :  5.25716e-04 Reference value :  5.42916e-04 Reference value :  5.69116e-04 Reference value :  5.95516e-04 Reference value :  6.21716e-04 Reference value :  6.47916e-04 Reference value :  6.74216e-04 Reference value :  7.00816e-04 Reference value :  7.18416e-04 Reference value :  7.34216e-04 Reference value :  7.60516e-04 Reference value :  7.87016e-04
No. of Data Rows : 8025

  Measurements for Transient Analysis

t_bvdd_56           =   5.60000e-06
t_pvdd_settle       =   2.53190e-04
pvdd_max            =  5.168482e+00 at=  4.640165e-04


Total analysis time (seconds) = 8.984

Total elapsed time (seconds) = 9.600 

Total DRAM available = 3834.176 MB.
DRAM currently available =  136.926 MB.
Maximum ngspice program size =   62.062 MB.
Current ngspice program size =   45.426 MB.

Shared ngspice pages =   10.723 MB.
Text (code) pages =    6.156 MB.
Stack = 0 bytes.
Library pages =   42.816 MB.


--- Running tb_su_handoff.spice ---
Using SPARSE 1.3 as Direct Linear Solver

Note: No compatibility mode selected!


Circuit: * tb_su_handoff.spice — handoff glitch test, tt 27c, 1v/us, no load

Doing analysis at TEMP = 27.000000 and TNOM = 27.000000

Using transient initial conditions
 Reference value :  1.00000e-09 Reference value :  1.85165e-05 Reference value :  4.02165e-05 Reference value :  6.66165e-05 Reference value :  9.29165e-05 Reference value :  1.19216e-04 Reference value :  1.38616e-04 Reference value :  1.65216e-04 Reference value :  1.91416e-04 Reference value :  2.17616e-04 Reference value :  2.43916e-04 Reference value :  2.70016e-04 Reference value :  2.96216e-04 Reference value :  3.16616e-04 Reference value :  3.39316e-04 Reference value :  3.65216e-04 Reference value :  3.91516e-04 Reference value :  4.17616e-04 Reference value :  4.44016e-04 Reference value :  4.70316e-04 Reference value :  4.94416e-04 Reference value :  5.16816e-04 Reference value :  5.43316e-04 Reference value :  5.69516e-04 Reference value :  5.95416e-04 Reference value :  6.20716e-04 Reference value :  6.47016e-04 Reference value :  6.72916e-04 Reference value :  6.92616e-04 Reference value :  7.18416e-04 Reference value :  7.44316e-04 Reference value :  7.70316e-04 Reference value :  7.96516e-04
No. of Data Rows : 8025

  Measurements for Transient Analysis


Error: measure  t_handoff  when(WHEN) : out of interval
 .meas tran t_handoff when v(ea_en)=2.5 rise=1 failed!

pvdd_final          =  4.978087e+00

Warning from checkvalid: vector t_handoff is not available or has zero length.

Error: measure  pvdd_at_start  find(AT) : out of interval

Error: measure  pvdd_at_end  find(AT) : out of interval
Warning from checkvalid: vector pvdd_at_start is not available or has zero length.
Error: RHS "(pvdd_max_ho - pvdd_at_start) * 1000" invalid
Warning from checkvalid: vector pvdd_at_start is not available or has zero length.
Error: RHS "(pvdd_at_start - pvdd_min_ho) * 1000" invalid
Error: &glitch_high_mV: no such variable.
Error: &glitch_low_mV: no such variable.
Error: &pvdd_final: no such variable.
Warning from checkvalid: vector pvdd_final is not available or has zero length.
Using SPARSE 1.3 as Direct Linear Solver
ea_en_transition_time_s: 999
 meas tran pvdd_at_start find v(pvdd) at=999 failed!

 meas tran pvdd_at_end find v(pvdd) at=999 failed!

pvdd_min_ho         =  0.000000e+00 at=  0.000000e+00
pvdd_max_ho         =  0.000000e+00 at=  0.000000e+00
handoff_glitch_high_mV:
handoff_glitch_low_mV:
handoff_glitch_pp_mV: 0
handoff_clean: 1
pvdd_final_V:
no_latch_stuck: 0
Doing analysis at TEMP = 27.000000 and TNOM = 27.000000

Using transient initial conditions
 Reference value :  1.21165e-05 Reference value :  3.85165e-05 Reference value :  5.60165e-05 Reference value :  8.24165e-05 Reference value :  1.08916e-04 Reference value :  1.35616e-04 Reference value :  1.62416e-04 Reference value :  1.88716e-04 Reference value :  2.15416e-04 Reference value :  2.35816e-04 Reference value :  2.62716e-04 Reference value :  2.89216e-04 Reference value :  3.15916e-04 Reference value :  3.42416e-04 Reference value :  3.69016e-04 Reference value :  3.95516e-04 Reference value :  4.15816e-04 Reference value :  4.41316e-04 Reference value :  4.67616e-04 Reference value :  4.93616e-04 Reference value :  5.20216e-04 Reference value :  5.46716e-04 Reference value :  5.73416e-04 Reference value :  5.98116e-04 Reference value :  6.17916e-04 Reference value :  6.44116e-04 Reference value :  6.69916e-04 Reference value :  6.96216e-04 Reference value :  7.22716e-04 Reference value :  7.49116e-04 Reference value :  7.75716e-04 Reference value :  7.94416e-04
No. of Data Rows : 8025

  Measurements for Transient Analysis


Error: measure  t_handoff  when(WHEN) : out of interval
 .meas tran t_handoff when v(ea_en)=2.5 rise=1 failed!

pvdd_final          =  4.978087e+00


Total analysis time (seconds) = 8.947

Total elapsed time (seconds) = 9.589 

Total DRAM available = 3834.176 MB.
DRAM currently available =  112.312 MB.
Maximum ngspice program size =   62.066 MB.
Current ngspice program size =   45.559 MB.

Shared ngspice pages =   10.859 MB.
Text (code) pages =    6.156 MB.
Stack = 0 bytes.
Library pages =   42.820 MB.


--- Running tb_su_50mA.spice ---
Using SPARSE 1.3 as Direct Linear Solver

Note: No compatibility mode selected!


Circuit: * tb_su_50ma.spice — startup with 50ma load, tt 27c, 1v/us

Doing analysis at TEMP = 27.000000 and TNOM = 27.000000

Using transient initial conditions
 Reference value :  1.00000e-09 Reference value :  1.68052e-05 Reference value :  3.18052e-05 Reference value :  5.42052e-05 Reference value :  7.64052e-05 Reference value :  9.81052e-05 Reference value :  1.20105e-04 Reference value :  1.46005e-04 Reference value :  1.71905e-04 Reference value :  1.89205e-04 Reference value :  2.06605e-04 Reference value :  2.32705e-04 Reference value :  2.58505e-04 Reference value :  2.84505e-04 Reference value :  3.10705e-04 Reference value :  3.28905e-04 Reference value :  3.52305e-04 Reference value :  3.78305e-04 Reference value :  4.04205e-04 Reference value :  4.30205e-04 Reference value :  4.56005e-04 Reference value :  4.81805e-04 Reference value :  5.03505e-04 Reference value :  5.25205e-04 Reference value :  5.51105e-04 Reference value :  5.77105e-04 Reference value :  6.03005e-04 Reference value :  6.28905e-04 Reference value :  6.55005e-04 Reference value :  6.78405e-04 Reference value :  6.98905e-04 Reference value :  7.24805e-04 Reference value :  7.50805e-04 Reference value :  7.76405e-04
No. of Data Rows : 8021

  Measurements for Transient Analysis

t_bvdd_56           =   5.60000e-06
t_pvdd_settle       =   2.88186e-04
pvdd_max            =  5.149743e+00 at=  4.724052e-04

Warning from checkvalid: vector t_pvdd_settle is not available or has zero length.
Using SPARSE 1.3 as Direct Linear Solver
startup_time_50mA_us: 999
pvdd_overshoot_mV: 149.743
pvdd_peak_V: 5.14974
pvdd_final          =  4.977195e+00
pvdd_final_V: 4.9772
load_current_mA: 49.772
no_latch_stuck: 1
Doing analysis at TEMP = 27.000000 and TNOM = 27.000000

Using transient initial conditions
 Reference value :  1.00000e-09 Reference value :  1.70052e-05 Reference value :  3.72052e-05 Reference value :  5.66052e-05 Reference value :  7.92052e-05 Reference value :  1.01405e-04 Reference value :  1.23605e-04 Reference value :  1.49905e-04 Reference value :  1.76205e-04 Reference value :  2.02405e-04 Reference value :  2.22005e-04 Reference value :  2.48905e-04 Reference value :  2.75205e-04 Reference value :  3.01505e-04 Reference value :  3.27905e-04 Reference value :  3.54305e-04 Reference value :  3.80605e-04 Reference value :  3.97305e-04 Reference value :  4.24605e-04 Reference value :  4.50805e-04 Reference value :  4.75305e-04 Reference value :  5.01705e-04 Reference value :  5.28105e-04 Reference value :  5.54405e-04 Reference value :  5.69905e-04 Reference value :  5.93805e-04 Reference value :  6.19805e-04 Reference value :  6.46205e-04 Reference value :  6.72505e-04 Reference value :  6.98605e-04 Reference value :  7.25005e-04 Reference value :  7.44005e-04 Reference value :  7.70805e-04 Reference value :  7.97405e-04
No. of Data Rows : 8021

  Measurements for Transient Analysis

t_bvdd_56           =   5.60000e-06
t_pvdd_settle       =   2.88186e-04
pvdd_max            =  5.149743e+00 at=  4.724052e-04


Total analysis time (seconds) = 9.606

Total elapsed time (seconds) = 10.220 

Total DRAM available = 3834.176 MB.
DRAM currently available =  218.188 MB.
Maximum ngspice program size =   62.062 MB.
Current ngspice program size =   45.414 MB.

Shared ngspice pages =   10.711 MB.
Text (code) pages =    6.156 MB.
Stack = 0 bytes.
Library pages =   42.816 MB.


--- Running tb_su_fast_ramp.spice ---
Using SPARSE 1.3 as Direct Linear Solver

Note: No compatibility mode selected!


Circuit: * tb_su_fast_ramp.spice — fast bvdd ramp 12v/us, tt 27c, no load

Doing analysis at TEMP = 27.000000 and TNOM = 27.000000

Using transient initial conditions
 Reference value :  1.00000e-09 Reference value :  4.97681e-06 Reference value :  2.40768e-05 Reference value :  4.31768e-05 Reference value :  6.22768e-05 Reference value :  8.14768e-05 Reference value :  1.00577e-04 Reference value :  1.17277e-04 Reference value :  1.35377e-04 Reference value :  1.57777e-04 Reference value :  1.79277e-04 Reference value :  2.02977e-04 Reference value :  2.28677e-04 Reference value :  2.54377e-04 Reference value :  2.80377e-04 Reference value :  3.00177e-04 Reference value :  3.26477e-04 Reference value :  3.52377e-04 Reference value :  3.78177e-04 Reference value :  4.04077e-04 Reference value :  4.30077e-04 Reference value :  4.56077e-04 Reference value :  4.74277e-04 Reference value :  5.00177e-04 Reference value :  5.26077e-04 Reference value :  5.51877e-04 Reference value :  5.77777e-04 Reference value :  6.03977e-04 Reference value :  6.29977e-04 Reference value :  6.49777e-04 Reference value :  6.76077e-04 Reference value :  7.02077e-04 Reference value :  7.28177e-04 Reference value :  7.54077e-04 Reference value :  7.79977e-04
No. of Data Rows : 8063

  Measurements for Transient Analysis

t_bvdd_56           =   4.66667e-07
t_pvdd_settle       =   1.32304e-04
pvdd_max            =  5.256655e+00 at=  3.131768e-04

Warning from checkvalid: vector t_pvdd_settle is not available or has zero length.
Using SPARSE 1.3 as Direct Linear Solver
startup_time_fast_ramp_us: 999
pvdd_overshoot_mV: 256.655
pvdd_peak_V: 5.25666
pvdd_final          =  4.993847e+00
pvdd_final_V: 4.99385
works_fast_ramp: 1
no_latch_stuck: 1
Doing analysis at TEMP = 27.000000 and TNOM = 27.000000

Using transient initial conditions
 Reference value :  1.81610e-08 Reference value :  4.07681e-06 Reference value :  2.36768e-05 Reference value :  4.28768e-05 Reference value :  6.20768e-05 Reference value :  8.12768e-05 Reference value :  1.00477e-04 Reference value :  1.19777e-04 Reference value :  1.37677e-04 Reference value :  1.55277e-04 Reference value :  1.77377e-04 Reference value :  2.00977e-04 Reference value :  2.27077e-04 Reference value :  2.53377e-04 Reference value :  2.79577e-04 Reference value :  3.04977e-04 Reference value :  3.25677e-04 Reference value :  3.52277e-04 Reference value :  3.78377e-04 Reference value :  4.04677e-04 Reference value :  4.30777e-04 Reference value :  4.56177e-04 Reference value :  4.82477e-04 Reference value :  4.99577e-04 Reference value :  5.25877e-04 Reference value :  5.51477e-04 Reference value :  5.77577e-04 Reference value :  6.03777e-04 Reference value :  6.30077e-04 Reference value :  6.56277e-04 Reference value :  6.73877e-04 Reference value :  7.00077e-04 Reference value :  7.26277e-04 Reference value :  7.52477e-04 Reference value :  7.78677e-04
No. of Data Rows : 8063

  Measurements for Transient Analysis

t_bvdd_56           =   4.66667e-07
t_pvdd_settle       =   1.32304e-04
pvdd_max            =  5.256655e+00 at=  3.131768e-04


Total analysis time (seconds) = 9.702

Total elapsed time (seconds) = 10.340 

Total DRAM available = 3834.176 MB.
DRAM currently available =  196.289 MB.
Maximum ngspice program size =   62.074 MB.
Current ngspice program size =   45.336 MB.

Shared ngspice pages =   10.621 MB.
Text (code) pages =    6.156 MB.
Stack = 0 bytes.
Library pages =   42.828 MB.


--- Running tb_su_slow_ramp.spice ---
Using SPARSE 1.3 as Direct Linear Solver

Note: No compatibility mode selected!


Circuit: * tb_su_slow_ramp.spice — slow bvdd ramp 0.1v/us, tt 27c, no load

Doing analysis at TEMP = 27.000000 and TNOM = 27.000000

Using transient initial conditions
 Reference value :  1.00000e-09 Reference value :  2.28538e-05 Reference value :  4.85538e-05 Reference value :  6.90119e-05 Reference value :  8.89119e-05 Reference value :  1.04612e-04 Reference value :  1.30150e-04 Reference value :  1.55650e-04 Reference value :  1.81250e-04 Reference value :  2.06650e-04 Reference value :  2.32250e-04 Reference value :  2.57950e-04 Reference value :  2.75250e-04 Reference value :  3.01050e-04 Reference value :  3.26950e-04 Reference value :  3.52850e-04 Reference value :  3.78650e-04 Reference value :  4.04550e-04 Reference value :  4.29550e-04 Reference value :  4.49950e-04 Reference value :  4.75550e-04 Reference value :  5.01050e-04 Reference value :  5.26950e-04 Reference value :  5.52750e-04 Reference value :  5.78550e-04 Reference value :  6.04450e-04 Reference value :  6.30250e-04 Reference value :  6.49150e-04 Reference value :  6.75450e-04 Reference value :  7.01050e-04 Reference value :  7.27050e-04 Reference value :  7.52750e-04 Reference value :  7.78350e-04 Reference value :  8.04250e-04 Reference value :  8.20750e-04 Reference value :  8.46950e-04 Reference value :  8.72650e-04 Reference value :  8.98350e-04 Reference value :  9.23950e-04 Reference value :  9.49850e-04 Reference value :  9.75750e-04 Reference value :  9.96150e-04
No. of Data Rows : 10021

  Measurements for Transient Analysis

t_bvdd_56           =   5.60000e-05
t_pvdd_settle       =   1.95028e-04
pvdd_max            =  5.259392e+00 at=  3.798500e-04

Warning from checkvalid: vector t_pvdd_settle is not available or has zero length.
Using SPARSE 1.3 as Direct Linear Solver
startup_time_slow_ramp_us: 999
pvdd_overshoot_mV: 259.392
pvdd_peak_V: 5.25939
pvdd_final          =  4.997548e+00
pvdd_final_V: 4.99755
pvdd_regulates_slow_ramp: 1
no_latch_stuck: 1
Doing analysis at TEMP = 27.000000 and TNOM = 27.000000

Using transient initial conditions
 Reference value :  1.40538e-05 Reference value :  3.99538e-05 Reference value :  6.30119e-05 Reference value :  8.24119e-05 Reference value :  1.04612e-04 Reference value :  1.29950e-04 Reference value :  1.49750e-04 Reference value :  1.76250e-04 Reference value :  2.01850e-04 Reference value :  2.27950e-04 Reference value :  2.53550e-04 Reference value :  2.78650e-04 Reference value :  3.04550e-04 Reference value :  3.24050e-04 Reference value :  3.47650e-04 Reference value :  3.73450e-04 Reference value :  3.99450e-04 Reference value :  4.25250e-04 Reference value :  4.51450e-04 Reference value :  4.77350e-04 Reference value :  4.97250e-04 Reference value :  5.22050e-04 Reference value :  5.47850e-04 Reference value :  5.73650e-04 Reference value :  5.99750e-04 Reference value :  6.25850e-04 Reference value :  6.51950e-04 Reference value :  6.76950e-04 Reference value :  6.98250e-04 Reference value :  7.24650e-04 Reference value :  7.50550e-04 Reference value :  7.76450e-04 Reference value :  8.02550e-04 Reference value :  8.28550e-04 Reference value :  8.54750e-04 Reference value :  8.73750e-04 Reference value :  8.99850e-04 Reference value :  9.25850e-04 Reference value :  9.51850e-04 Reference value :  9.77950e-04
No. of Data Rows : 10021

  Measurements for Transient Analysis

t_bvdd_56           =   5.60000e-05
t_pvdd_settle       =   1.95028e-04
pvdd_max            =  5.259392e+00 at=  3.798500e-04


Total analysis time (seconds) = 11.355

Total elapsed time (seconds) = 12.006 

Total DRAM available = 3834.176 MB.
DRAM currently available =  193.453 MB.
Maximum ngspice program size =   64.918 MB.
Current ngspice program size =   48.203 MB.

Shared ngspice pages =   10.629 MB.
Text (code) pages =    6.156 MB.
Stack = 0 bytes.
Library pages =   45.672 MB.


--- Running tb_su_cold_crank.spice ---
Using SPARSE 1.3 as Direct Linear Solver

Note: No compatibility mode selected!


Circuit: * tb_su_cold_crank.spice — cold crank bvdd profile, tt 27c

Doing analysis at TEMP = 27.000000 and TNOM = 27.000000

Using transient initial conditions
 Reference value :  1.00000e-09 Reference value :  1.71484e-05 Reference value :  4.32484e-05 Reference value :  6.92484e-05 Reference value :  9.53484e-05 Reference value :  1.14648e-04 Reference value :  1.41048e-04 Reference value :  1.67048e-04 Reference value :  1.93048e-04 Reference value :  2.15958e-04 Reference value :  2.35158e-04 Reference value :  2.54558e-04 Reference value :  2.66758e-04 Reference value :  2.86358e-04 Reference value :  3.08458e-04 Reference value :  3.34558e-04 Reference value :  3.60758e-04 Reference value :  3.86658e-04 Reference value :  4.08654e-04 Reference value :  4.27650e-04 Reference value :  4.53950e-04 Reference value :  4.80050e-04 Reference value :  5.05750e-04 Reference value :  5.31850e-04 Reference value :  5.58050e-04 Reference value :  5.84150e-04 Reference value :  6.06450e-04 Reference value :  6.31250e-04 Reference value :  6.57050e-04 Reference value :  6.83250e-04 Reference value :  7.09450e-04 Reference value :  7.35850e-04 Reference value :  7.61850e-04 Reference value :  7.87850e-04 Reference value :  8.06950e-04 Reference value :  8.32850e-04 Reference value :  8.58750e-04 Reference value :  8.84950e-04 Reference value :  9.10950e-04 Reference value :  9.36950e-04 Reference value :  9.61650e-04 Reference value :  9.81350e-04
No. of Data Rows : 10040

  Measurements for Transient Analysis

pvdd_pre_dip        =  5.087630e+00
pvdd_during_dip     =  1.792065e+00
pvdd_post_recovery  =  4.982205e+00
pvdd_min_dip        =  1.699777e+00 at=  4.011500e-04

Error: &pvdd_pre_dip: no such variable.
Error: &pvdd_during_dip: no such variable.
Error: &pvdd_min_dip: no such variable.
Warning from checkvalid: vector pvdd_pre_dip is not available or has zero length.
Error: RHS "(pvdd_pre_dip - pvdd_min_dip) * 1000" invalid
Error: &pvdd_drop_mV: no such variable.
Error: &pvdd_post_recovery: no such variable.
Warning from checkvalid: vector pvdd_post_recovery is not available or has zero length.
Warning from checkvalid: vector pvdd_post_recovery is not available or has zero length.
Error: RHS "pvdd_post_recovery" invalid
Warning from checkvalid: vector pvdd_final is not available or has zero length.
Using SPARSE 1.3 as Direct Linear Solver
pvdd_pre_dip_V:
pvdd_during_dip_V:
pvdd_min_during_dip_V:
pvdd_drop_during_crank_mV:
pvdd_post_recovery_V:
cold_crank_recovery: 0
no_latch_stuck: 0
Doing analysis at TEMP = 27.000000 and TNOM = 27.000000

Using transient initial conditions
 Reference value :  1.25377e-06 Reference value :  2.12484e-05 Reference value :  4.74484e-05 Reference value :  7.37484e-05 Reference value :  1.00048e-04 Reference value :  1.26448e-04 Reference value :  1.46748e-04 Reference value :  1.73348e-04 Reference value :  1.99448e-04 Reference value :  2.20658e-04 Reference value :  2.40058e-04 Reference value :  2.59458e-04 Reference value :  2.78858e-04 Reference value :  2.94358e-04 Reference value :  3.17658e-04 Reference value :  3.44058e-04 Reference value :  3.70458e-04 Reference value :  3.96758e-04 Reference value :  4.19050e-04 Reference value :  4.45450e-04 Reference value :  4.66850e-04 Reference value :  4.92050e-04 Reference value :  5.18550e-04 Reference value :  5.45050e-04 Reference value :  5.71450e-04 Reference value :  5.97850e-04 Reference value :  6.24250e-04 Reference value :  6.50350e-04 Reference value :  6.70250e-04 Reference value :  6.96750e-04 Reference value :  7.23150e-04 Reference value :  7.49450e-04 Reference value :  7.75850e-04 Reference value :  8.02250e-04 Reference value :  8.28150e-04 Reference value :  8.45950e-04 Reference value :  8.72550e-04 Reference value :  8.98850e-04 Reference value :  9.25350e-04 Reference value :  9.51850e-04 Reference value :  9.78450e-04
No. of Data Rows : 10040

  Measurements for Transient Analysis

pvdd_pre_dip        =  5.087630e+00
pvdd_during_dip     =  1.792065e+00
pvdd_post_recovery  =  4.982205e+00
pvdd_min_dip        =  1.699777e+00 at=  4.011500e-04


Total analysis time (seconds) = 11.462

Total elapsed time (seconds) = 12.119 

Total DRAM available = 3834.176 MB.
DRAM currently available =  187.688 MB.
Maximum ngspice program size =   64.918 MB.
Current ngspice program size =   48.195 MB.

Shared ngspice pages =   10.625 MB.
Text (code) pages =    6.156 MB.
Stack = 0 bytes.
Library pages =   45.672 MB.


--- Running tb_su_leakage.spice ---
Using SPARSE 1.3 as Direct Linear Solver

Note: No compatibility mode selected!


Circuit: * tb_su_leakage.spice — post-startup leakage measurement, tt 27c, 1v/us

Doing analysis at TEMP = 27.000000 and TNOM = 27.000000

Using transient initial conditions
 Reference value :  1.00000e-09 Reference value :  1.86165e-05 Reference value :  4.50165e-05 Reference value :  7.11165e-05 Reference value :  9.12165e-05 Reference value :  1.17816e-04 Reference value :  1.43816e-04 Reference value :  1.69916e-04 Reference value :  1.95716e-04 Reference value :  2.21916e-04 Reference value :  2.48016e-04 Reference value :  2.67316e-04 Reference value :  2.93116e-04 Reference value :  3.19216e-04 Reference value :  3.45516e-04 Reference value :  3.71816e-04 Reference value :  3.98016e-04 Reference value :  4.24216e-04 Reference value :  4.46616e-04 Reference value :  4.70716e-04 Reference value :  4.97216e-04 Reference value :  5.22716e-04 Reference value :  5.48916e-04 Reference value :  5.75216e-04 Reference value :  6.01316e-04 Reference value :  6.27316e-04 Reference value :  6.46916e-04 Reference value :  6.73616e-04 Reference value :  6.99616e-04 Reference value :  7.25416e-04 Reference value :  7.51616e-04 Reference value :  7.77716e-04
No. of Data Rows : 8025

  Measurements for Transient Analysis

pvdd_final          =  4.978087e+00

Error: nostrchring on a scalar (@vbvdd[i])
  in term: @vbvdd[i][length(@vbvdd[i])-1]

Error: Can't evaluate "@vbvdd[i][length(@vbvdd[i])-1]"
Warning from checkvalid: vector ibvdd_final is not available or has zero length.
Error: RHS "ibvdd_final * 1e6" invalid
Warning from checkvalid: vector ibvdd_ua is not available or has zero length.
Error: RHS "abs(ibvdd_ua)" invalid
Error: &ibvdd_abs_uA: no such variable.
Error: &pvdd_final: no such variable.
Warning from checkvalid: vector pvdd_final is not available or has zero length.
Using SPARSE 1.3 as Direct Linear Solver
bvdd_supply_current_uA:
ibvdd_avg           =  0.000000e+00 from=  6.000000e-04 to=  1.000000e-09
bvdd_avg_leakage_uA: 0
pvdd_final_V:
leakage_ok: 1
no_latch_stuck: 0
Doing analysis at TEMP = 27.000000 and TNOM = 27.000000

Using transient initial conditions
 Reference value :  1.00000e-09 Reference value :  1.15165e-05 Reference value :  3.80165e-05 Reference value :  6.44165e-05 Reference value :  9.09165e-05 Reference value :  1.17316e-04 Reference value :  1.43816e-04 Reference value :  1.70316e-04 Reference value :  1.90816e-04 Reference value :  2.17316e-04 Reference value :  2.42016e-04 Reference value :  2.68416e-04 Reference value :  2.94816e-04 Reference value :  3.21316e-04 Reference value :  3.47716e-04 Reference value :  3.66916e-04 Reference value :  3.93716e-04 Reference value :  4.20116e-04 Reference value :  4.46616e-04 Reference value :  4.73016e-04 Reference value :  4.99516e-04 Reference value :  5.25916e-04 Reference value :  5.46616e-04 Reference value :  5.69116e-04 Reference value :  5.95516e-04 Reference value :  6.21816e-04 Reference value :  6.48316e-04 Reference value :  6.74816e-04 Reference value :  7.01216e-04 Reference value :  7.24816e-04 Reference value :  7.47216e-04 Reference value :  7.73916e-04
No. of Data Rows : 8025

  Measurements for Transient Analysis

pvdd_final          =  4.978087e+00


Total analysis time (seconds) = 8.878

Total elapsed time (seconds) = 9.520 

Total DRAM available = 3834.176 MB.
DRAM currently available =  169.805 MB.
Maximum ngspice program size =   61.762 MB.
Current ngspice program size =   45.148 MB.

Shared ngspice pages =   10.688 MB.
Text (code) pages =    6.156 MB.
Stack = 0 bytes.
Library pages =   42.516 MB.


--- Running tb_su_inrush.spice ---
Using SPARSE 1.3 as Direct Linear Solver

Note: No compatibility mode selected!


Circuit: * tb_su_inrush.spice — measure peak bvdd inrush current, tt 27c, 1v/us

Doing analysis at TEMP = 27.000000 and TNOM = 27.000000

Using transient initial conditions
 Reference value :  1.00000e-09 Reference value :  1.55165e-05 Reference value :  4.12165e-05 Reference value :  6.69165e-05 Reference value :  9.27165e-05 Reference value :  1.11616e-04 Reference value :  1.37916e-04 Reference value :  1.63716e-04 Reference value :  1.89516e-04 Reference value :  2.15416e-04 Reference value :  2.41316e-04 Reference value :  2.66516e-04 Reference value :  2.87016e-04 Reference value :  3.13016e-04 Reference value :  3.38816e-04 Reference value :  3.64716e-04 Reference value :  3.90516e-04 Reference value :  4.16016e-04 Reference value :  4.41816e-04 Reference value :  4.67416e-04 Reference value :  4.85916e-04 Reference value :  5.11816e-04 Reference value :  5.37716e-04 Reference value :  5.63616e-04 Reference value :  5.89416e-04 Reference value :  6.15416e-04 Reference value :  6.41316e-04 Reference value :  6.49816e-04 Reference value :  6.70716e-04 Reference value :  6.96216e-04 Reference value :  7.22216e-04 Reference value :  7.48216e-04 Reference value :  7.73816e-04 Reference value :  7.92516e-04
No. of Data Rows : 8025

  Measurements for Transient Analysis

pvdd_final          =  4.978087e+00


Error: measure  ibvdd_avg_startup  avg(TRIG) : out of interval
Warning from checkvalid: vector ibvdd_avg_startup is not available or has zero length.
Error: RHS "abs(ibvdd_avg_startup) * 1000" invalid
Error: &avg_startup_mA: no such variable.
Error: &pvdd_final: no such variable.
Warning from checkvalid: vector pvdd_final is not available or has zero length.
Using SPARSE 1.3 as Direct Linear Solver
peak_inrush_mA: 21.8806
peak_power_mW: 63.1769
 meas tran ibvdd_avg_startup avg @vbvdd[i] from=0 to=50u failed!

avg_inrush_startup_mA:
inrush_ok: 1
pvdd_final_V:
no_latch_stuck: 0
Doing analysis at TEMP = 27.000000 and TNOM = 27.000000

Using transient initial conditions
 Reference value :  7.41646e-06 Reference value :  3.31165e-05 Reference value :  5.91165e-05 Reference value :  8.53165e-05 Reference value :  1.11616e-04 Reference value :  1.37716e-04 Reference value :  1.57316e-04 Reference value :  1.83916e-04 Reference value :  2.09916e-04 Reference value :  2.36016e-04 Reference value :  2.62116e-04 Reference value :  2.88316e-04 Reference value :  3.14416e-04 Reference value :  3.33016e-04 Reference value :  3.59616e-04 Reference value :  3.85716e-04 Reference value :  4.12016e-04 Reference value :  4.38216e-04 Reference value :  4.64616e-04 Reference value :  4.90716e-04 Reference value :  5.11916e-04 Reference value :  5.37216e-04 Reference value :  5.63416e-04 Reference value :  5.89616e-04 Reference value :  6.15816e-04 Reference value :  6.42116e-04 Reference value :  6.68316e-04 Reference value :  6.94516e-04 Reference value :  7.15016e-04 Reference value :  7.41116e-04 Reference value :  7.67416e-04 Reference value :  7.93516e-04
No. of Data Rows : 8025

  Measurements for Transient Analysis

pvdd_final          =  4.978087e+00


Total analysis time (seconds) = 9.208

Total elapsed time (seconds) = 10.158 

Total DRAM available = 3834.176 MB.
DRAM currently available =  143.102 MB.
Maximum ngspice program size =   61.812 MB.
Current ngspice program size =   45.301 MB.

Shared ngspice pages =   10.789 MB.
Text (code) pages =    6.156 MB.
Stack = 0 bytes.
Library pages =   42.566 MB.


--- Running tb_su_ss150.spice ---
Using SPARSE 1.3 as Direct Linear Solver

Note: No compatibility mode selected!


Circuit: * tb_su_ss150.spice — ss corner 150c, 1v/us, no load

Doing analysis at TEMP = 150.000000 and TNOM = 27.000000

Using transient initial conditions
 Reference value :  1.00000e-09 Reference value :  1.72033e-05 Reference value :  3.88033e-05 Reference value :  6.09033e-05 Reference value :  8.64033e-05 Reference value :  1.12603e-04 Reference value :  1.32203e-04 Reference value :  1.57803e-04 Reference value :  1.84003e-04 Reference value :  2.10103e-04 Reference value :  2.36303e-04 Reference value :  2.62303e-04 Reference value :  2.88303e-04 Reference value :  3.13503e-04 Reference value :  3.34303e-04 Reference value :  3.60403e-04 Reference value :  3.86603e-04 Reference value :  4.12703e-04 Reference value :  4.38803e-04 Reference value :  4.64603e-04 Reference value :  4.90303e-04 Reference value :  5.09303e-04 Reference value :  5.35103e-04 Reference value :  5.61103e-04 Reference value :  5.87203e-04 Reference value :  6.13403e-04 Reference value :  6.39603e-04 Reference value :  6.65203e-04 Reference value :  6.85403e-04 Reference value :  7.11503e-04 Reference value :  7.37603e-04 Reference value :  7.63703e-04 Reference value :  7.89903e-04
No. of Data Rows : 8021

  Measurements for Transient Analysis

t_bvdd_56           =   5.60000e-06
t_pvdd_settle       =   3.38663e-04
pvdd_max            =  4.979804e+00 at=  3.840033e-04

Warning from checkvalid: vector t_pvdd_settle is not available or has zero length.
Using SPARSE 1.3 as Direct Linear Solver
startup_time_ss150_us: 999
pvdd_overshoot_mV: 0
pvdd_peak_V: 4.9798
min_dpvdd_V_per_s: -3703.74
pvdd_monotonic: 1
pvdd_final          =  4.941541e+00
pvdd_final_V: 4.94154
no_latch_stuck: 1
Doing analysis at TEMP = 150.000000 and TNOM = 27.000000

Using transient initial conditions
 Reference value :  7.75000e-06 Reference value :  2.72033e-05 Reference value :  4.46033e-05 Reference value :  6.78033e-05 Reference value :  9.41033e-05 Reference value :  1.20503e-04 Reference value :  1.46003e-04 Reference value :  1.72503e-04 Reference value :  1.98903e-04 Reference value :  2.18303e-04 Reference value :  2.43803e-04 Reference value :  2.70103e-04 Reference value :  2.96503e-04 Reference value :  3.22903e-04 Reference value :  3.49303e-04 Reference value :  3.75603e-04 Reference value :  3.98803e-04 Reference value :  4.23003e-04 Reference value :  4.49303e-04 Reference value :  4.75503e-04 Reference value :  5.01903e-04 Reference value :  5.28203e-04 Reference value :  5.54503e-04 Reference value :  5.80903e-04 Reference value :  6.02603e-04 Reference value :  6.28903e-04 Reference value :  6.55203e-04 Reference value :  6.81503e-04 Reference value :  7.07903e-04 Reference value :  7.34303e-04 Reference value :  7.57903e-04 Reference value :  7.77203e-04
No. of Data Rows : 8021

  Measurements for Transient Analysis

t_bvdd_56           =   5.60000e-06
t_pvdd_settle       =   3.38663e-04
pvdd_max            =  4.979804e+00 at=  3.840033e-04


Total analysis time (seconds) = 9.01

Total elapsed time (seconds) = 9.664 

Total DRAM available = 3834.176 MB.
DRAM currently available =  134.242 MB.
Maximum ngspice program size =   62.109 MB.
Current ngspice program size =   45.543 MB.

Shared ngspice pages =   10.797 MB.
Text (code) pages =    6.156 MB.
Stack = 0 bytes.
Library pages =   42.863 MB.


--- Running tb_su_ff_m40.spice ---
Using SPARSE 1.3 as Direct Linear Solver

Note: No compatibility mode selected!


Circuit: * tb_su_ff_m40.spice — ff corner -40c, 12v/us fast ramp, no load

Doing analysis at TEMP = -40.000000 and TNOM = 27.000000

Using transient initial conditions
 Reference value :  1.00000e-09 Reference value :  7.55322e-06 Reference value :  2.19532e-05 Reference value :  4.09532e-05 Reference value :  5.97532e-05 Reference value :  7.87532e-05 Reference value :  9.78532e-05 Reference value :  1.16953e-04 Reference value :  1.35953e-04 Reference value :  1.50753e-04 Reference value :  1.69853e-04 Reference value :  1.88853e-04 Reference value :  2.08553e-04 Reference value :  2.30653e-04 Reference value :  2.52953e-04 Reference value :  2.78753e-04 Reference value :  2.96253e-04 Reference value :  3.22453e-04 Reference value :  3.48253e-04 Reference value :  3.74053e-04 Reference value :  3.99953e-04 Reference value :  4.25853e-04 Reference value :  4.51053e-04 Reference value :  4.71653e-04 Reference value :  4.97053e-04 Reference value :  5.22853e-04 Reference value :  5.48753e-04 Reference value :  5.74653e-04 Reference value :  6.00553e-04 Reference value :  6.26453e-04 Reference value :  6.52053e-04 Reference value :  6.73353e-04 Reference value :  6.99253e-04 Reference value :  7.25053e-04 Reference value :  7.50853e-04 Reference value :  7.76953e-04
No. of Data Rows : 8063

  Measurements for Transient Analysis

t_bvdd_56           =   4.66667e-07
t_pvdd_settle       =   1.10450e-06
pvdd_max            =  5.296005e+00 at=  4.061532e-04

Warning from checkvalid: vector t_pvdd_settle is not available or has zero length.
Using SPARSE 1.3 as Direct Linear Solver
startup_time_ff_m40_us: 999
pvdd_overshoot_mV: 296.005
pvdd_peak_V: 5.296
min_dpvdd_V_per_s: -405780
pvdd_monotonic: 1
pvdd_final          =  4.993308e+00
pvdd_final_V: 4.99331
no_latch_stuck: 1
Doing analysis at TEMP = -40.000000 and TNOM = 27.000000

Using transient initial conditions
 Reference value :  1.00000e-09 Reference value :  7.55322e-06 Reference value :  2.18532e-05 Reference value :  4.10532e-05 Reference value :  6.01532e-05 Reference value :  7.92532e-05 Reference value :  9.83532e-05 Reference value :  1.17653e-04 Reference value :  1.36953e-04 Reference value :  1.51753e-04 Reference value :  1.71053e-04 Reference value :  1.90253e-04 Reference value :  2.10453e-04 Reference value :  2.32553e-04 Reference value :  2.55253e-04 Reference value :  2.81353e-04 Reference value :  3.01553e-04 Reference value :  3.28053e-04 Reference value :  3.54353e-04 Reference value :  3.80453e-04 Reference value :  4.06653e-04 Reference value :  4.32753e-04 Reference value :  4.58653e-04 Reference value :  4.79953e-04 Reference value :  5.04453e-04 Reference value :  5.30553e-04 Reference value :  5.56653e-04 Reference value :  5.82853e-04 Reference value :  6.08953e-04 Reference value :  6.35153e-04 Reference value :  6.60253e-04 Reference value :  6.81853e-04 Reference value :  7.07953e-04 Reference value :  7.33953e-04 Reference value :  7.60053e-04 Reference value :  7.85853e-04
No. of Data Rows : 8063

  Measurements for Transient Analysis

t_bvdd_56           =   4.66667e-07
t_pvdd_settle       =   1.10450e-06
pvdd_max            =  5.296005e+00 at=  4.061532e-04


Total analysis time (seconds) = 9.899

Total elapsed time (seconds) = 10.517 

Total DRAM available = 3834.176 MB.
DRAM currently available =  142.363 MB.
Maximum ngspice program size =   62.156 MB.
Current ngspice program size =   45.535 MB.

Shared ngspice pages =   10.742 MB.
Text (code) pages =    6.156 MB.
Stack = 0 bytes.
Library pages =   42.910 MB.


--- Running tb_su_pvt.spice ---
Using SPARSE 1.3 as Direct Linear Solver

Note: No compatibility mode selected!


Circuit: * tb_su_pvt.spice — pvt latch-up check, tt 27c, 1v/us, no load

Doing analysis at TEMP = 27.000000 and TNOM = 27.000000

Using transient initial conditions
 Reference value :  1.00000e-09 Reference value :  1.85165e-05 Reference value :  4.30165e-05 Reference value :  6.69165e-05 Reference value :  9.29165e-05 Reference value :  1.09816e-04 Reference value :  1.34616e-04 Reference value :  1.59016e-04 Reference value :  1.83616e-04 Reference value :  2.09016e-04 Reference value :  2.34716e-04 Reference value :  2.60816e-04 Reference value :  2.79816e-04 Reference value :  3.04716e-04 Reference value :  3.29816e-04 Reference value :  3.55116e-04 Reference value :  3.79716e-04 Reference value :  4.04516e-04 Reference value :  4.30616e-04 Reference value :  4.51716e-04 Reference value :  4.74016e-04 Reference value :  4.98516e-04 Reference value :  5.23016e-04 Reference value :  5.46316e-04 Reference value :  5.70916e-04 Reference value :  5.96716e-04 Reference value :  6.22516e-04 Reference value :  6.40016e-04 Reference value :  6.64316e-04 Reference value :  6.87516e-04 Reference value :  7.11516e-04 Reference value :  7.36116e-04 Reference value :  7.60916e-04 Reference value :  7.86416e-04
No. of Data Rows : 8025

  Measurements for Transient Analysis

t_bvdd_56           =   5.60000e-06
t_pvdd_settle       =   2.53190e-04
pvdd_max            =  5.168482e+00 at=  4.640165e-04

Warning from checkvalid: vector t_pvdd_settle is not available or has zero length.
Using SPARSE 1.3 as Direct Linear Solver
startup_time_pvt_us: 999
pvdd_final          =  4.978087e+00
pvdd_final_V: 4.97809
pvdd_overshoot_mV: 168.482
sd_final            =  6.999999e+00
startup_done_final_V: 7
ea_en_final         =  1.864861e+00
ea_en_final_V: 1.86486
gate_final          =  5.867997e+00
gate_final_V: 5.868
pvdd_in_regulation: 1
startup_done_high: 1
ea_en_high: 0
gate_reasonable: 1
no_latchup: 0
Doing analysis at TEMP = 27.000000 and TNOM = 27.000000

Using transient initial conditions
 Reference value :  1.74407e-07 Reference value :  2.08165e-05 Reference value :  4.58165e-05 Reference value :  6.90165e-05 Reference value :  9.13165e-05 Reference value :  1.17216e-04 Reference value :  1.42916e-04 Reference value :  1.61516e-04 Reference value :  1.86616e-04 Reference value :  2.12216e-04 Reference value :  2.36716e-04 Reference value :  2.62416e-04 Reference value :  2.87216e-04 Reference value :  3.13516e-04 Reference value :  3.31216e-04 Reference value :  3.56316e-04 Reference value :  3.80916e-04 Reference value :  4.05916e-04 Reference value :  4.31116e-04 Reference value :  4.56216e-04 Reference value :  4.82516e-04 Reference value :  5.02516e-04 Reference value :  5.29116e-04 Reference value :  5.54616e-04 Reference value :  5.79616e-04 Reference value :  6.03916e-04 Reference value :  6.28016e-04 Reference value :  6.53916e-04 Reference value :  6.78316e-04 Reference value :  6.99216e-04 Reference value :  7.23716e-04 Reference value :  7.47416e-04 Reference value :  7.71516e-04 Reference value :  7.96116e-04
No. of Data Rows : 8025

  Measurements for Transient Analysis

t_bvdd_56           =   5.60000e-06
t_pvdd_settle       =   2.53190e-04
pvdd_max            =  5.168482e+00 at=  4.640165e-04


Total analysis time (seconds) = 9.297

Total elapsed time (seconds) = 9.940 

Total DRAM available = 3834.176 MB.
DRAM currently available =  141.266 MB.
Maximum ngspice program size =   62.070 MB.
Current ngspice program size =   45.332 MB.

Shared ngspice pages =   10.621 MB.
Text (code) pages =    6.156 MB.
Stack = 0 bytes.
Library pages =   42.824 MB.


--- Evaluation ---
---
* startup_time_ss150_us                   999  us        (spec <= 100.0)  FAIL
  startup_time_50mA_us                    999  us        (spec <= 200.0)  FAIL
  pvdd_monotonic                            1  bool      (spec >= 1.0)  PASS
  pvdd_overshoot_mV                     168.5  mV        (spec <= 200.0)  PASS
  handoff_glitch_mV                       ???  mV        (spec <= 100.0)  MISSING
  works_slow_ramp                         ???  bool      (spec >= 1.0)  MISSING
  works_fast_ramp                           1  bool      (spec >= 1.0)  PASS
  cold_crank_ok                           ???  bool      (spec >= 1.0)  MISSING
  leakage_after_uA                        ???  uA        (spec <= 1.0)  MISSING
  no_overshoot_ff_m40                     ???  bool      (spec >= 1.0)  MISSING
  no_latch_stuck                            1  bool      (spec >= 1.0)  PASS
specs_pass: 4/11
primary (startup_time_ss150_us): 999

Run finished: Mon Mar 30 07:52:41 UTC 2026
