=== Block 09: Startup Circuit ===
Run started: Sun Mar 29 17:26:38 UTC 2026

--- Running tb_su_basic.spice ---
Using SPARSE 1.3 as Direct Linear Solver

Note: No compatibility mode selected!


Circuit: * tb_su_basic.spice — basic startup test with integrated level shifter

Doing analysis at TEMP = 27.000000 and TNOM = 27.000000

Using transient initial conditions
 Reference value :  5.00000e-10 Reference value :  1.28371e-05 Reference value :  2.92371e-05 Reference value :  4.62371e-05 Reference value :  6.21871e-05 Reference value :  7.82871e-05 Reference value :  9.54871e-05 Reference value :  1.12587e-04 Reference value :  1.29887e-04 Reference value :  1.46387e-04 Reference value :  1.63337e-04 Reference value :  1.80137e-04 Reference value :  1.97037e-04 Reference value :  2.11837e-04 Reference value :  2.29237e-04 Reference value :  2.45337e-04 Reference value :  2.62487e-04 Reference value :  2.72487e-04 Reference value :  2.87787e-04
No. of Data Rows : 6024

  Measurements for Transient Analysis

pvdd_max            =  6.219193e+00 at=  2.463709e-05
pvdd_at_50u         =  6.165738e+00
pvdd_at_100u        =  6.002364e+00
pvdd_at_200u        =  5.995090e+00

Using SPARSE 1.3 as Direct Linear Solver
PVDD peak: 6.21919 V
PVDD final: 5.99895 V
Overshoot: 1219.19 mV
startup_time_ss150_us: 0
pvdd_overshoot_mV: 1219.19
pvdd_monotonic: 1
no_latch_stuck: 1
Doing analysis at TEMP = 27.000000 and TNOM = 27.000000

Using transient initial conditions
 Reference value :  9.23323e-07 Reference value :  1.54871e-05 Reference value :  3.15371e-05 Reference value :  4.88871e-05 Reference value :  6.56371e-05 Reference value :  7.17371e-05 Reference value :  8.92371e-05 Reference value :  1.06337e-04 Reference value :  1.23387e-04 Reference value :  1.40137e-04 Reference value :  1.57137e-04 Reference value :  1.67437e-04 Reference value :  1.83537e-04 Reference value :  1.95787e-04 Reference value :  2.12987e-04 Reference value :  2.28187e-04 Reference value :  2.45637e-04 Reference value :  2.53437e-04 Reference value :  2.70787e-04 Reference value :  2.87087e-04
No. of Data Rows : 6024

  Measurements for Transient Analysis

pvdd_max            =  6.219193e+00 at=  2.463709e-05
pvdd_at_50u         =  6.165738e+00
pvdd_at_100u        =  6.002364e+00
pvdd_at_200u        =  5.995090e+00


Total analysis time (seconds) = 5.984

Total elapsed time (seconds) = 6.525 

Total DRAM available = 3834.176 MB.
DRAM currently available =  269.668 MB.
Maximum ngspice program size =   51.621 MB.
Current ngspice program size =   34.949 MB.

Shared ngspice pages =   10.707 MB.
Text (code) pages =    6.156 MB.
Stack = 0 bytes.
Library pages =   32.375 MB.


--- Running tb_su_handoff.spice ---
Using SPARSE 1.3 as Direct Linear Solver

Note: No compatibility mode selected!


Circuit: * tb_su_handoff.spice — measure pvdd disturbance at startup-to-regulation handoff

Doing analysis at TEMP = 27.000000 and TNOM = 27.000000

Using transient initial conditions
 Reference value :  1.00000e-10 Reference value :  1.89675e-07 Reference value :  1.70968e-06 Reference value :  5.07968e-06 Reference value :  7.38974e-06 Reference value :  1.01997e-05 Reference value :  1.34497e-05 Reference value :  1.66297e-05 Reference value :  1.97897e-05 Reference value :  2.32197e-05 Reference value :  2.66497e-05 Reference value :  2.82797e-05 Reference value :  3.14097e-05 Reference value :  3.49597e-05 Reference value :  3.81697e-05 Reference value :  4.13497e-05 Reference value :  4.45597e-05 Reference value :  4.67097e-05 Reference value :  4.99097e-05
No. of Data Rows : 5022
handoff_glitch_mV: 50
Note: Simulation executed from .control section 

--- Running tb_su_50mA.spice ---
Using SPARSE 1.3 as Direct Linear Solver

Note: No compatibility mode selected!


Circuit: * tb_su_50ma.spice — startup with 50 ma load

Doing analysis at TEMP = 27.000000 and TNOM = 27.000000

Using transient initial conditions
 Reference value :  1.00000e-09 Reference value :  2.18500e-05 Reference value :  3.65500e-05 Reference value :  6.90500e-05 Reference value :  1.04650e-04 Reference value :  1.34050e-04 Reference value :  1.68650e-04 Reference value :  2.02350e-04 Reference value :  2.22050e-04 Reference value :  2.52050e-04 Reference value :  2.86850e-04
No. of Data Rows : 3031

  Measurements for Transient Analysis

t_bvdd_56           =   5.60000e-06
t_pvdd_495          =   5.22440e-06
pvdd_max            =  6.708558e+00 at=  8.150000e-06
pvdd_at_200u        =  5.019932e+00

Using SPARSE 1.3 as Direct Linear Solver
startup_time_50mA_us: 5
Doing analysis at TEMP = 27.000000 and TNOM = 27.000000

Using transient initial conditions
 Reference value :  1.16500e-05 Reference value :  4.40500e-05 Reference value :  7.40500e-05 Reference value :  1.01650e-04 Reference value :  1.29250e-04 Reference value :  1.57150e-04 Reference value :  1.91450e-04 Reference value :  2.26050e-04 Reference value :  2.61350e-04 Reference value :  2.91150e-04
No. of Data Rows : 3031

  Measurements for Transient Analysis

t_bvdd_56           =   5.60000e-06
t_pvdd_495          =   5.22440e-06
pvdd_max            =  6.708558e+00 at=  8.150000e-06
pvdd_at_200u        =  5.019932e+00


Total analysis time (seconds) = 3.169

Total elapsed time (seconds) = 3.703 

Total DRAM available = 3834.176 MB.
DRAM currently available =  263.137 MB.
Maximum ngspice program size =   48.273 MB.
Current ngspice program size =   31.578 MB.

Shared ngspice pages =   10.605 MB.
Text (code) pages =    6.156 MB.
Stack = 0 bytes.
Library pages =   29.027 MB.


--- Running tb_su_fast_ramp.spice ---
Using SPARSE 1.3 as Direct Linear Solver

Note: No compatibility mode selected!


Circuit: * tb_su_fast_ramp.spice — 12 v/us bvdd ramp, overshoot measurement

Doing analysis at TEMP = 27.000000 and TNOM = 27.000000

Using transient initial conditions
 Reference value :  1.00000e-10 Reference value :  2.26913e-06 Reference value :  5.49913e-06 Reference value :  8.70913e-06 Reference value :  1.05691e-05 Reference value :  1.38191e-05 Reference value :  1.73791e-05 Reference value :  2.07591e-05 Reference value :  2.39991e-05 Reference value :  2.72291e-05 Reference value :  2.94391e-05 Reference value :  3.26591e-05 Reference value :  3.58591e-05 Reference value :  3.91191e-05 Reference value :  4.25291e-05 Reference value :  4.56791e-05 Reference value :  4.83191e-05 Reference value :  5.09991e-05 Reference value :  5.42191e-05 Reference value :  5.77691e-05 Reference value :  6.09691e-05 Reference value :  6.40991e-05 Reference value :  6.74691e-05 Reference value :  6.93391e-05 Reference value :  7.21791e-05 Reference value :  7.57191e-05 Reference value :  7.88891e-05 Reference value :  8.20591e-05 Reference value :  8.49091e-05 Reference value :  8.74591e-05 Reference value :  9.02591e-05 Reference value :  9.34591e-05 Reference value :  9.66491e-05 Reference value :  9.98391e-05 Reference value :  1.02929e-04 Reference value :  1.06139e-04 Reference value :  1.07769e-04 Reference value :  1.11049e-04 Reference value :  1.14569e-04 Reference value :  1.17489e-04 Reference value :  1.20909e-04 Reference value :  1.24009e-04 Reference value :  1.25989e-04 Reference value :  1.28819e-04 Reference value :  1.32109e-04 Reference value :  1.35559e-04 Reference value :  1.38709e-04 Reference value :  1.41899e-04 Reference value :  1.44979e-04 Reference value :  1.47049e-04 Reference value :  1.50469e-04 Reference value :  1.53729e-04 Reference value :  1.56809e-04 Reference value :  1.59979e-04 Reference value :  1.63409e-04 Reference value :  1.65509e-04 Reference value :  1.68679e-04 Reference value :  1.72189e-04 Reference value :  1.75639e-04 Reference value :  1.78779e-04 Reference value :  1.82079e-04 Reference value :  1.85089e-04 Reference value :  1.87499e-04 Reference value :  1.90449e-04 Reference value :  1.93939e-04 Reference value :  1.97269e-04
No. of Data Rows : 20023

  Measurements for Transient Analysis

pvdd_max            =  1.049991e+01 at=  4.769128e-06
pvdd_at_100u        =  9.434974e+00

Using SPARSE 1.3 as Direct Linear Solver
works_fast_ramp: 1
Fast ramp PVDD peak: 10.4999 V
Fast ramp overshoot: 5499.91 mV
Doing analysis at TEMP = 27.000000 and TNOM = 27.000000

Using transient initial conditions
 Reference value :  1.00000e-10 Reference value :  2.65913e-06 Reference value :  4.32913e-06 Reference value :  7.75913e-06 Reference value :  1.10491e-05 Reference value :  1.42691e-05 Reference value :  1.77691e-05 Reference value :  2.10291e-05 Reference value :  2.29491e-05 Reference value :  2.60091e-05 Reference value :  2.93291e-05 Reference value :  3.27891e-05 Reference value :  3.60191e-05 Reference value :  3.92591e-05 Reference value :  4.23091e-05 Reference value :  4.44491e-05 Reference value :  4.77491e-05 Reference value :  5.13091e-05 Reference value :  5.47591e-05 Reference value :  5.79291e-05 Reference value :  6.13491e-05 Reference value :  6.32591e-05 Reference value :  6.66591e-05 Reference value :  7.00391e-05 Reference value :  7.31291e-05 Reference value :  7.63391e-05 Reference value :  7.95391e-05 Reference value :  8.27991e-05 Reference value :  8.50891e-05 Reference value :  8.83391e-05 Reference value :  9.16991e-05 Reference value :  9.51791e-05 Reference value :  9.81991e-05 Reference value :  1.01379e-04 Reference value :  1.03519e-04 Reference value :  1.06859e-04 Reference value :  1.09989e-04 Reference value :  1.13489e-04 Reference value :  1.16699e-04 Reference value :  1.20109e-04 Reference value :  1.22449e-04 Reference value :  1.25039e-04 Reference value :  1.28529e-04 Reference value :  1.31879e-04 Reference value :  1.34879e-04 Reference value :  1.38379e-04 Reference value :  1.41619e-04 Reference value :  1.43509e-04 Reference value :  1.46479e-04 Reference value :  1.50039e-04 Reference value :  1.53369e-04 Reference value :  1.56579e-04 Reference value :  1.59989e-04 Reference value :  1.62969e-04 Reference value :  1.65439e-04 Reference value :  1.68919e-04 Reference value :  1.71919e-04 Reference value :  1.75339e-04 Reference value :  1.78509e-04 Reference value :  1.81729e-04 Reference value :  1.83559e-04 Reference value :  1.87029e-04 Reference value :  1.90309e-04 Reference value :  1.93789e-04 Reference value :  1.96759e-04
No. of Data Rows : 20023

  Measurements for Transient Analysis

pvdd_max            =  1.049991e+01 at=  4.769128e-06
pvdd_at_100u        =  9.434974e+00


Total analysis time (seconds) = 20.319

Total elapsed time (seconds) = 20.936 

Total DRAM available = 3834.176 MB.
DRAM currently available =  174.562 MB.
Maximum ngspice program size =   65.297 MB.
Current ngspice program size =   48.684 MB.

Shared ngspice pages =   10.805 MB.
Text (code) pages =    6.156 MB.
Stack = 0 bytes.
Library pages =   46.051 MB.


--- Running tb_su_slow_ramp.spice ---
Using SPARSE 1.3 as Direct Linear Solver

Note: No compatibility mode selected!


Circuit: * tb_su_slow_ramp.spice — 0.1 v/us bvdd ramp, verify startup completes

Doing analysis at TEMP = 27.000000 and TNOM = 27.000000

Using transient initial conditions
 Reference value :  5.00000e-09 Reference value :  1.09725e-04 Reference value :  2.83225e-04 Reference value :  4.42725e-04
No. of Data Rows : 1032

  Measurements for Transient Analysis

t_pvdd_495          =   4.95066e-05
pvdd_at_200u        =  9.429890e+00
pvdd_at_400u        =  9.429891e+00

Using SPARSE 1.3 as Direct Linear Solver
works_slow_ramp: 1
Slow ramp: startup completes, PVDD peak = 9.43163 V
Doing analysis at TEMP = 27.000000 and TNOM = 27.000000

Using transient initial conditions
 Reference value :  1.30982e-05 Reference value :  1.51225e-04 Reference value :  3.20725e-04 Reference value :  4.61225e-04
No. of Data Rows : 1032

  Measurements for Transient Analysis

t_pvdd_495          =   4.95066e-05
pvdd_at_200u        =  9.429890e+00
pvdd_at_400u        =  9.429891e+00


Total analysis time (seconds) = 1.133

Total elapsed time (seconds) = 1.711 

Total DRAM available = 3834.176 MB.
DRAM currently available =  181.164 MB.
Maximum ngspice program size =   46.316 MB.
Current ngspice program size =   29.926 MB.

Shared ngspice pages =   10.934 MB.
Text (code) pages =    6.156 MB.
Stack = 0 bytes.
Library pages =   27.070 MB.


--- Running tb_su_cold_crank.spice ---
Using SPARSE 1.3 as Direct Linear Solver

Note: No compatibility mode selected!


Circuit: * tb_su_cold_crank.spice — cold crank recovery: bvdd 10.5v -> 3v -> 7v

Doing analysis at TEMP = 27.000000 and TNOM = 27.000000

Using transient initial conditions
 Reference value :  1.00000e-09 Reference value :  2.63500e-05 Reference value :  5.95500e-05 Reference value :  9.14542e-05 Reference value :  1.20050e-04 Reference value :  1.54850e-04 Reference value :  1.77350e-04 Reference value :  2.09050e-04 Reference value :  2.39850e-04 Reference value :  2.74450e-04 Reference value :  3.06650e-04 Reference value :  3.41150e-04 Reference value :  3.74550e-04 Reference value :  3.93250e-04 Reference value :  4.26050e-04 Reference value :  4.60650e-04 Reference value :  4.90450e-04
No. of Data Rows : 5043

  Measurements for Transient Analysis

pvdd_at_90u         =  4.993346e+00
pvdd_at_200u        =  5.957464e+00
pvdd_at_400u        =  5.957464e+00

Using SPARSE 1.3 as Direct Linear Solver
cold_crank_ok: 1
Cold crank recovery: PVDD final = 5.95746 V
Doing analysis at TEMP = 27.000000 and TNOM = 27.000000

Using transient initial conditions
 Reference value :  1.57500e-05 Reference value :  4.87500e-05 Reference value :  6.94500e-05 Reference value :  9.83542e-05 Reference value :  1.32450e-04 Reference value :  1.67350e-04 Reference value :  2.02150e-04 Reference value :  2.32150e-04 Reference value :  2.64450e-04 Reference value :  2.81950e-04 Reference value :  3.13450e-04 Reference value :  3.46650e-04 Reference value :  3.79350e-04 Reference value :  4.11750e-04 Reference value :  4.42450e-04 Reference value :  4.64850e-04 Reference value :  4.96950e-04
No. of Data Rows : 5043

  Measurements for Transient Analysis

pvdd_at_90u         =  4.993346e+00
pvdd_at_200u        =  5.957464e+00
pvdd_at_400u        =  5.957464e+00


Total analysis time (seconds) = 5.118

Total elapsed time (seconds) = 5.695 

Total DRAM available = 3834.176 MB.
DRAM currently available =  177.348 MB.
Maximum ngspice program size =   50.387 MB.
Current ngspice program size =   33.961 MB.

Shared ngspice pages =   10.879 MB.
Text (code) pages =    6.156 MB.
Stack = 0 bytes.
Library pages =   31.141 MB.


--- Running tb_su_leakage.spice ---
Using SPARSE 1.3 as Direct Linear Solver

Note: No compatibility mode selected!


Circuit: * tb_su_leakage.spice — measure startup circuit leakage after startup complete

Doing analysis at TEMP = 27.000000 and TNOM = 27.000000

 Reference value :  0.00000e+00Using SPARSE 1.3 as Direct Linear Solver

No. of Data Rows : 1
BVDD current (startup leakage): 0.219827 uA
PVDD current (divider): 0.485369 uA
leakage_after_uA: 0.219827
Doing analysis at TEMP = 27.000000 and TNOM = 27.000000


No. of Data Rows : 1
	Node                                  Voltage
	----                                  -------
	----	-------
	m.xstartup.xmn_det.msky130_fd_pr__nfet_g5v0d10v5#sbody   1.603789e-14
	m.xstartup.xmn_det.msky130_fd_pr__nfet_g5v0d10v5#body   3.207577e-14
	m.xstartup.xmn_det.msky130_fd_pr__nfet_g5v0d10v5#dbody   8.018943e-14
	m.xstartup.xmn_gate.msky130_fd_pr__nfet_g5v0d10v5#sbody   6.301312e-11
	m.xstartup.xmn_gate.msky130_fd_pr__nfet_g5v0d10v5#body   1.260262e-10
	m.xstartup.xmn_gate.msky130_fd_pr__nfet_g5v0d10v5#dbody   2.132631e-10
	m.xstartup.xmn_pu.msky130_fd_pr__nfet_g5v0d10v5#sbody   2.316250e-10
	m.xstartup.xmn_pu.msky130_fd_pr__nfet_g5v0d10v5#body   1.627500e-10
	m.xstartup.xmn_pu.msky130_fd_pr__nfet_g5v0d10v5#dbody   2.566250e-10
	m.xstartup.xmp_sd.msky130_fd_pr__pfet_g5v0d10v5#sbody   7.000000e+00
	m.xstartup.xmp_sd.msky130_fd_pr__pfet_g5v0d10v5#body   7.000000e+00
	m.xstartup.xmp_sd.msky130_fd_pr__pfet_g5v0d10v5#dbody   7.000000e+00
	m.xstartup.xmn_sd.msky130_fd_pr__nfet_g5v0d10v5#sbody   9.801160e-11
	m.xstartup.xmn_sd.msky130_fd_pr__nfet_g5v0d10v5#body   1.960232e-10
	m.xstartup.xmn_sd.msky130_fd_pr__nfet_g5v0d10v5#dbody   2.732616e-10
	m.xstartup.xmp_ea.msky130_fd_pr__pfet_g5v0d10v5#sbody   7.000000e+00
	m.xstartup.xmp_ea.msky130_fd_pr__pfet_g5v0d10v5#body   7.000000e+00
	m.xstartup.xmp_ea.msky130_fd_pr__pfet_g5v0d10v5#dbody   7.000000e+00
	m.xstartup.xmn_ea.msky130_fd_pr__nfet_g5v0d10v5#sbody   9.801160e-11
	m.xstartup.xmn_ea.msky130_fd_pr__nfet_g5v0d10v5#body   1.960232e-10
	m.xstartup.xmn_ea.msky130_fd_pr__nfet_g5v0d10v5#dbody   2.732616e-10
	ea_en                            7.000000e+00
	startup_done                     7.000000e+00
	xstartup.pull_mid                5.999999e+00
	xstartup.xr_gate.t2              5.999999e+00
	xstartup.xr_gate.t1              6.000000e+00
	xstartup.xr_pu.t2                1.922721e-03
	xstartup.xr_pu.t1                6.999982e+00
	xstartup.det_out                 1.905164e-03
	xstartup.xr_bot.t2               2.721021e-05
	xstartup.xr_bot.t1               8.990400e-01
	xstartup.sense_mid               8.990673e-01
	xstartup.xr_top.t2               8.990945e-01
	xstartup.xr_top.t1               4.999973e+00
	vref                             1.226000e+00
	gate                             6.000000e+00
	pvdd                             5.000000e+00
	bvdd                             7.000000e+00

	Source	Current
	------	-------

	vbvdd#branch                     -2.19827e-07
	vpvdd#branch                     -4.85369e-07
	vgate#branch                     -1.48471e-11
	vref#branch                      0.000000e+00

 BSIM4v5 models (Berkeley Short Channel IGFET Model-4)
      model xstartup.xmn_ea:sky13 xstartup.xmp_ea:sky13 xstartup.xmn_sd:sky13

     capmod                     2                     2                     2
     diomod                     1                     1                     1
     rdsmod                     0                     0                     0
   trnqsmod                     0                     0                     0
   acnqsmod                     0                     0                     0
     mobmod                     0                     0                     0
   rbodymod                     1                     1                     1
   rgatemod                     0                     0                     0
     permod                     1                     1                     1
     geomod                     0                     0                     0
    rgeomod                     0                     0                     0
    fnoimod                     1                     1                     1
    tnoimod                     1                     1                     1
     igcmod                     0                     0                     0
     igbmod                     0                     0                     0
    tempmod                     0                     0                     0
   paramchk                     1                     1                     1
    binunit                     2                     2                     2
    version                   4.5                   4.5                   4.5
       toxe              1.16e-08             1.175e-08              1.16e-08
       toxp              1.16e-08             1.175e-08              1.16e-08
       toxm              1.16e-08             1.175e-08              1.16e-08
     toxref              1.16e-08             1.175e-08              1.16e-08
       dtox                     0                     0                     0
     epsrox                   3.9                   3.9                   3.9
       cdsc                     0                     0                     0
      cdscb                     0                     0                     0
      cdscd                     0                     0                     0
        cit               -0.0008          -1.27312e-05               -0.0008
    nfactor               1.19404              0.463163               1.19404
         xj               1.5e-07               1.5e-07               1.5e-07
       vsat                116469               9128.49                116469
         at               7825.35               47731.2               7825.35
         a0                 1.093                0.6588                 1.093
        ags              0.229131              0.977017              0.229131
         a1                     0                     0                     0
         a2              0.659726                   0.5              0.659726
       keta              -0.01066              -0.15376              -0.01066
       nsub                 6e+16                 6e+16                 6e+16
       ndep               1.7e+17               1.7e+17               1.7e+17
        nsd                 1e+20                 1e+20                 1e+20
       phin                     0                     0                     0
      ngate                 1e+23                 1e+23                 1e+23
     gamma1                     0                     0                     0
     gamma2                     0                     0                     0
        vbx                     0                     0                     0
        vbm                    -3                    -3                    -3
         xt              1.55e-07              1.55e-07              1.55e-07
         k1               0.88325              0.590242               0.88325
        kt1               -0.3792             -0.592764               -0.3792
       kt1l                     0                     0                     0
        kt2             -0.019151             -0.019032             -0.019151
         k2            -0.0251924            0.00468799            -0.0251924
         k3                -0.884               -2.2405                -0.884
        k3b                  0.43                -0.172                  0.43
         w0                     0                     0                     0
      dvtp0                     0                     0                     0
      dvtp1                     0                     0                     0
       lpe0               2.5e-08                     0               2.5e-08
       lpeb            -2.182e-07                     0            -2.182e-07
       dvt0                     0                 4.657                     0
       dvt1                  0.53               0.34864                  0.53
       dvt2              -0.19251             -0.030206              -0.19251
      dvt0w                  0.16                  -2.2                  0.16
      dvt1w            6.9091e+06            1.0163e+06            6.9091e+06
      dvt2w             -0.036016                     0             -0.036016
      drout               0.36075              0.335842               0.36075
       dsub                 0.504              0.384694                 0.504
       vth0              0.802984              -1.26583              0.802984
         ua           -1.3788e-10          -8.31844e-10           -1.3788e-10
        ua1           6.21572e-09             5.524e-10           6.21572e-09
         ub            8.3332e-19           8.47491e-18            8.3332e-19
        ub1          -1.10308e-17           -3.5909e-18          -1.10308e-17
         uc           6.49563e-11            6.0827e-12           6.49563e-11
        uc1           -5.9821e-11            -1.092e-10           -5.9821e-11
         ud                     0                     0                     0
        ud1                     0                     0                     0
         up                     0                     0                     0
         lp                     1                     1                     1
         u0             0.0360892             0.0297664             0.0360892
         eu                  1.67                  1.67                  1.67
        ute               -1.4652              -1.39342               -1.4652
       voff              -0.20613             -0.281923              -0.20613
       minv                     0                     0                     0
      voffl          -4.25795e-07                     0          -4.25795e-07
       tnom                303.15                303.15                303.15
       cgso           2.75468e-10           1.94171e-10           2.75468e-10
       cgdo           2.75468e-10           1.94171e-10           2.75468e-10
       cgbo                     0                     0                     0
      xpart                     0                     0                     0
      delta                0.0246                  0.01                0.0246
        rsh                     1                     1                     1
       rdsw                724.62                788.47                724.62
    rdswmin                     0                     0                     0
        rsw                     0                     0                     0
        rdw                     0                     0                     0
     rdwmin                     0                     0                     0
     rswmin                     0                     0                     0
       prwg                 0.048                     0                 0.048
       prwb               0.05626              0.053538               0.05626
        prt                     0                     0                     0
       eta0                 0.032            -0.0559185                 0.032
       etab              -0.01932            0.00188632              -0.01932
       pclm              0.704757               2.02196              0.704757
    pdiblc1               0.21098              0.195862               0.21098
    pdiblc2                0.0002            -0.0336185                0.0002
    pdiblcb              -0.26831                -0.025              -0.26831
     fprout                10.125                     0                10.125
      pdits                     0                     0                     0
     pditsl                     0                     0                     0
     pditsd                     0                     0                     0
     pscbe1            9.3731e+08          -5.69877e+07            9.3731e+08
     pscbe2              1.68e-06           1.82815e-08              1.68e-06
       pvag                  1.99                     0                  1.99
        jss              0.000375            2.1483e-05              0.000375
       jsws              5.84e-11              4.02e-12              5.84e-11
      jswgs                     0                     0                     0
        pbs               0.72468                0.6587               0.72468
        njs                1.0773                1.3632                1.0773
       xtis                  0.76                    10                  0.76
        mjs                 0.295               0.33956                 0.295
      pbsws               0.29067                     1               0.29067
      mjsws              0.037586               0.24676              0.037586
     pbswgs               0.54958                     3               0.54958
     mjswgs               0.78692                  0.81               0.78692
        cjs           0.000846987           0.000779347           0.000846987
      cjsws           8.64309e-11           9.96055e-11           8.64309e-11
     cjswgs           5.47776e-11           1.47314e-10           5.47776e-11
        jsd              0.000375            2.1483e-05              0.000375
       jswd              5.84e-11              4.02e-12              5.84e-11
      jswgd                     0                     0                     0
        pbd               0.72468                0.6587               0.72468
        njd                1.0773                1.3632                1.0773
       xtid                  0.76                    10                  0.76
        mjd                 0.295               0.33956                 0.295
      pbswd               0.29067                     1               0.29067
      mjswd              0.037586               0.24676              0.037586
     pbswgd               0.54958                     3               0.54958
     mjswgd               0.78692                  0.81               0.78692
        cjd           0.000846987           0.000779347           0.000846987
      cjswd           8.64309e-11           9.96055e-11           8.64309e-11
     cjswgd           5.47776e-11           1.47314e-10           5.47776e-11
      vfbcv                    -1             -0.144689                    -1
        vfb                     0                     0                     0
        tpb              0.001344              0.001671              0.001344
        tcj            0.00067434               0.00096            0.00067434
      tpbsw            0.00099005                     0            0.00099005
      tcjsw             0.0002493                 3e-05             0.0002493
     tpbswg                     0                     0                     0
     tcjswg                     0                     0                     0
       acde                0.4176                 0.401                0.4176
       moin                    15                15.773                    15
       noff                     4                     4                     4
     voffcv               -0.4104                     0               -0.4104
       dmcg                     0                     0                     0
       dmci                     0                     0                     0
       dmdg                     0                     0                     0
      dmcgt                     0                     0                     0
        xgw                     0                     0                     0
        xgl                     0                     0                     0
       rshg                   0.1                   0.1                   0.1
      ngcon                     1                     1                     1
     xrcrg1                    12                    12                    12
     xrcrg2                     1                     1                     1
     lambda                     0                     0                     0
        vtl                     0                     0                     0
         lc                 5e-09                 5e-09                 5e-09
         xn                     3                     3                     3
   vfbsdoff                     0                     0                     0
  tvfbsdoff                     0                     0                     0
      tvoff                     0                     0                     0
    lintnoi <<NAN, error = 7>> <<NAN, error = 7>> <<NAN, error = 7>>
       lint            7.6507e-08            4.5375e-08            7.6507e-08
         ll                     0                     0                     0
        llc                     0                     0                     0
        lln                     1                     1                     1
         lw                     0                     0                     0
        lwc                     0                     0                     0
        lwn                     1                     1                     1
        lwl                     0                     0                     0
       lwlc                     0                     0                     0
       lmin                 8e-07                 8e-07                 8e-07
       lmax                 1e-06                 1e-06                 1e-06
         wr                     1                     1                     1
       wint            2.1346e-08            1.2277e-08            2.1346e-08
        dwg           -4.1292e-09           -4.7338e-09           -4.1292e-09
        dwb           -1.6944e-09                     0           -1.6944e-09
         wl                     0                     0                     0
        wlc                     0                     0                     0
        wln                     1                     1                     1
         ww                     0                     0                     0
        wwc                     0                     0                     0
        wwn                     1                     1                     1
        wwl                     0                     0                     0
       wwlc                     0                     0                     0
       wmin               1.5e-06                 3e-06               1.5e-06
       wmax                 3e-06                 5e-06                 3e-06
         b0            3.2933e-08                     0            3.2933e-08
         b1                     0                     0                     0
       cgsl           4.49025e-11           9.82591e-12           4.49025e-11
       cgdl           4.49025e-11           9.82591e-12           4.49025e-11
    ckappas                   0.6                   0.6                   0.6
    ckappad                   0.6                   0.6                   0.6
         cf                     0               1.2e-11                     0
        clc                 1e-07                 1e-07                 1e-07
        cle                   0.6                   0.6                   0.6
        dwc                     0                     0                     0
        dlc            6.5995e-08            4.4983e-08            6.5995e-08
         xw                     0                     0                     0
         xl                     0                     0                     0
      dlcig                     0                     0                     0
        dwj                     0                     0                     0
     alpha0           1.54371e-05           0.000247158           1.54371e-05
     alpha1                     0                     0                     0
      beta0               27.7785               67.1969               27.7785
      agidl              5.06e-11           4.96251e-09              5.06e-11
      bgidl             1.058e+09           7.00288e+08             1.058e+09
      cgidl                  4000              -3904.52                  4000
      egidl                   0.8               1.83556                   0.8
       aigc                  0.43                  0.43                  0.43
       bigc                 0.054                 0.054                 0.054
       cigc                 0.075                 0.075                 0.075
      aigsd                  0.43                  0.43                  0.43
      bigsd                 0.054                 0.054                 0.054
      cigsd                 0.075                 0.075                 0.075
    aigbacc                     1                  0.43                     1
    bigbacc                     0                 0.054                     0
    cigbacc                     0                 0.075                     0
    aigbinv                  0.35                  0.35                  0.35
    bigbinv                  0.03                  0.03                  0.03
    cigbinv                 0.006                 0.006                 0.006
       nigc                     1                     1                     1
    nigbinv                     3                     3                     3
    nigbacc                     1                     1                     1
       ntox                     1                     1                     1
    eigbinv                   1.1                   1.1                   1.1
      pigcd                     1                     1                     1
    poxedge                     1                     1                     1
   ijthdfwd                   0.1                   0.1                   0.1
   ijthsfwd                   0.1                   0.1                   0.1
   ijthdrev                   0.1                   0.1                   0.1
   ijthsrev                   0.1                   0.1                   0.1
      xjbvd                     1                     1                     1
      xjbvs                     1                     1                     1
        bvd                12.636                 12.69                12.636
        bvs                12.636                 12.69                12.636
       jtss                     0                     0                     0
       jtsd                     0                     0                     0
     jtssws                     0                     0                     0
     jtsswd                     0                     0                     0
    jtsswgs                     0                     0                     0
    jtsswgd                     0                     0                     0
       njts                    20                    20                    20
     njtssw                    20                    20                    20
    njtsswg                    20                    20                    20
       xtss                  0.02                  0.02                  0.02
       xtsd                  0.02                  0.02                  0.02
     xtssws                  0.02                  0.02                  0.02
     xtsswd                  0.02                  0.02                  0.02
    xtsswgs                  0.02                  0.02                  0.02
    xtsswgd                  0.02                  0.02                  0.02
      tnjts                     0                     0                     0
    tnjtssw                     0                     0                     0
   tnjtsswg                     0                     0                     0
       vtss                    10                    10                    10
       vtsd                    10                    10                    10
     vtssws                    10                    10                    10
     vtsswd                    10                    10                    10
    vtsswgs                    10                    10                    10
    vtsswgd                    10                    10                    10
      gbmin                 1e-12                 1e-12                 1e-12
       rbdb                    50                    50                    50
       rbpb                    50                    50                    50
       rbsb                    50                    50                    50
       rbps                    50                    50                    50
       rbpd                    50                    50                    50
      rbps0                    50                    50                    50
      rbpsl                     0                     0                     0
      rbpsw                     0                     0                     0
     rbpsnf                     0                     0                     0
      rbpd0                    50                    50                    50
      rbpdl                     0                     0                     0
      rbpdw                     0                     0                     0
     rbpdnf                     0                     0                     0
     rbpbx0                   100                   100                   100
     rbpbxl                     0                     0                     0
     rbpbxw                     0                     0                     0
    rbpbxnf                     0                     0                     0
     rbpby0                   100                   100                   100
     rbpbyl                     0                     0                     0
     rbpbyw                     0                     0                     0
    rbpbynf                     0                     0                     0
     rbsbx0                   100                   100                   100
     rbsby0                   100                   100                   100
     rbdbx0                   100                   100                   100
     rbdby0                   100                   100                   100
    rbsdbxl                     0                     0                     0
    rbsdbxw                     0                     0                     0
   rbsdbxnf                     0                     0                     0
    rbsdbyl                     0                     0                     0
    rbsdbyw                     0                     0                     0
   rbsdbynf                     0                     0                     0
      lcdsc                     0                     0                     0
     lcdscb                     0                     0                     0
     lcdscd                     0                     0                     0
       lcit                     0           1.61221e-11                     0
   lnfactor          -3.27034e-07           8.68893e-07          -3.27034e-07
        lxj                     0                     0                     0
      lvsat            -0.0147038              0.035243            -0.0147038
        lat             0.0136997            -0.0161221             0.0136997
        la0           1.88892e-08           1.31005e-07           1.88892e-08
       lags          -4.45651e-08          -1.81495e-07          -4.45651e-08
        la1                     0                     0                     0
        la2                     0                     0                     0
      lketa                     0           6.28183e-08                     0
      lnsub                     0                     0                     0
      lndep                     0                     0                     0
       lnsd                     0                     0                     0
      lphin                     0                     0                     0
     lngate                     0                     0                     0
    lgamma1                     0                     0                     0
    lgamma2                     0                     0                     0
       lvbx                     0                     0                     0
       lvbm                     0                     0                     0
        lxt                     0                     0                     0
        lk1                     0          -9.86675e-09                     0
       lkt1           5.47988e-09          -3.38565e-08           5.47988e-09
      lkt1l                     0                     0                     0
       lkt2                     0                     0                     0
        lk2           6.67455e-10           2.21853e-08           6.67455e-10
        lk3                     0                     0                     0
       lk3b                     0                     0                     0
        lw0                     0                     0                     0
     ldvtp0                     0                     0                     0
     ldvtp1                     0                     0                     0
      llpe0                     0                     0                     0
      llpeb                     0                     0                     0
      ldvt0                     0                     0                     0
      ldvt1                     0                     0                     0
      ldvt2                     0                     0                     0
     ldvt0w                     0                     0                     0
     ldvt1w                     0                     0                     0
     ldvt2w                     0                     0                     0
     ldrout                     0           6.80546e-08                     0
      ldsub                     0          -7.79255e-08                     0
      lvth0          -2.21321e-09           2.13085e-07          -2.21321e-09
        lua          -8.40042e-18            2.2584e-15          -8.40042e-18
       lua1          -2.71994e-15                     0          -2.71994e-15
        lub           8.13469e-25          -6.16059e-24           8.13469e-25
       lub1           6.66559e-24                     0           6.66559e-24
        luc            1.0568e-18          -6.06302e-18            1.0568e-18
       luc1                     0                     0                     0
        lud                     0                     0                     0
       lud1                     0                     0                     0
        lup                     0                     0                     0
        llp                     0                     0                     0
        lu0           5.81765e-09          -7.75838e-09           5.81765e-09
       lute           1.41107e-07          -6.12641e-08           1.41107e-07
      lvoff                     0           1.48305e-07                     0
      lminv                     0                     0                     0
     ldelta                     0                     0                     0
      lrdsw                     0                     0                     0
       lrsw                     0                     0                     0
       lrdw                     0                     0                     0
      lprwg                     0                     0                     0
      lprwb                     0                     0                     0
       lprt                     0                     0                     0
      leta0                     0           4.01649e-08                     0
      letab                    -0          -1.71514e-09                    -0
      lpclm           -4.6605e-08          -7.44536e-07           -4.6605e-08
   lpdiblc1                     0           1.85182e-07                     0
   lpdiblc2                     0           3.19371e-08                     0
   lpdiblcb                     0                     0                     0
    lfprout                     0                     0                     0
     lpdits                     0                     0                     0
    lpditsd                     0                     0                     0
    lpscbe1                     0               324.119                     0
    lpscbe2                     0          -3.38873e-15                     0
      lpvag                     0                     0                     0
        lwr                     0                     0                     0
       ldwg                     0                     0                     0
       ldwb                     0                     0                     0
        lb0                     0                     0                     0
        lb1                     0                     0                     0
      lcgsl                     0                     0                     0
      lcgdl                     0                     0                     0
   lckappas                     0                     0                     0
   lckappad                     0                     0                     0
        lcf                     0                     0                     0
       lclc                     0                     0                     0
       lcle                     0                     0                     0
    lalpha0          -4.52695e-12          -1.63069e-10          -4.52695e-12
    lalpha1                     0                     0                     0
     lbeta0           4.05503e-06          -1.54972e-05           4.05503e-06
     lagidl                     0           8.32907e-15                     0
     lbgidl                     0               785.148                     0
     lcgidl                     0            0.00313809                     0
     legidl                     0          -9.60693e-07                     0
      laigc                     0                     0                     0
      lbigc                     0                     0                     0
      lcigc                     0                     0                     0
     laigsd                     0                     0                     0
     lbigsd                     0                     0                     0
     lcigsd                     0                     0                     0
   laigbacc                     0                     0                     0
   lbigbacc                     0                     0                     0
   lcigbacc                     0                     0                     0
   laigbinv                     0                     0                     0
   lbigbinv                     0                     0                     0
   lcigbinv                     0                     0                     0
      lnigc                     0                     0                     0
   lnigbinv                     0                     0                     0
   lnigbacc                     0                     0                     0
      lntox                     0                     0                     0
   leigbinv                     0                     0                     0
     lpigcd                     0                     0                     0
   lpoxedge                     0                     0                     0
     lvfbcv                     0                     0                     0
       lvfb                     0                     0                     0
      lacde                     0                     0                     0
      lmoin                     0                     0                     0
      lnoff                     0                     0                     0
    lvoffcv                     0                     0                     0
    lxrcrg1                     0                     0                     0
    lxrcrg2                     0                     0                     0
    llambda <<NAN, error = 7>> <<NAN, error = 7>> <<NAN, error = 7>>
       lvtl <<NAN, error = 7>> <<NAN, error = 7>> <<NAN, error = 7>>
        lxn <<NAN, error = 7>> <<NAN, error = 7>> <<NAN, error = 7>>
        leu                     0                     0                     0
  lvfbsdoff                     0                     0                     0
 ltvfbsdoff                     0                     0                     0
     ltvoff                     0                     0                     0
      wcdsc                     0                     0                     0
     wcdscb                     0                     0                     0
     wcdscd                     0                     0                     0
       wcit                     0                     0                     0
   wnfactor          -5.79551e-07           3.46175e-06          -5.79551e-07
        wxj                     0                     0                     0
      wvsat            -0.0402171                     0            -0.0402171
        wat                     0                     0                     0
        wa0           2.43959e-08           5.88111e-07           2.43959e-08
       wags           -1.1612e-07          -1.01258e-06           -1.1612e-07
        wa1                     0                     0                     0
        wa2                     0                     0                     0
      wketa                     0                     0                     0
      wnsub                     0                     0                     0
      wndep                     0                     0                     0
       wnsd                     0                     0                     0
      wphin                     0                     0                     0
     wngate                     0                     0                     0
    wgamma1                     0                     0                     0
    wgamma2                     0                     0                     0
       wvbx                     0                     0                     0
       wvbm                     0                     0                     0
        wxt                     0                     0                     0
        wk1                     0                     0                     0
       wkt1                     0                     0                     0
      wkt1l                     0                     0                     0
       wkt2                     0                     0                     0
        wk2          -1.30504e-08           4.02267e-08          -1.30504e-08
        wk3                     0                     0                     0
       wk3b                     0                     0                     0
        ww0                     0                     0                     0
     wdvtp0                     0                     0                     0
     wdvtp1                     0                     0                     0
      wlpe0                     0                     0                     0
      wlpeb                     0                     0                     0
      wdvt0                     0                     0                     0
      wdvt1                     0                     0                     0
      wdvt2                     0                     0                     0
     wdvt0w                     0                     0                     0
     wdvt1w                     0                     0                     0
     wdvt2w                     0                     0                     0
     wdrout                     0                     0                     0
      wdsub                     0          -1.68259e-11                     0
      wvth0          -1.64557e-08            1.0005e-06          -1.64557e-08
        wua          -3.14749e-17          -4.43271e-17          -3.14749e-17
       wua1                     0                     0                     0
        wub           8.62189e-25          -1.44634e-23           8.62189e-25
       wub1           1.40775e-24                     0           1.40775e-24
        wuc           3.68988e-18          -3.08149e-33           3.68988e-18
       wuc1                     0                     0                     0
        wud                     0                     0                     0
       wud1                     0                     0                     0
        wup                     0                     0                     0
        wlp                     0                     0                     0
        wu0           6.28439e-09          -5.51586e-08           6.28439e-09
       wute                     0                     0                     0
      wvoff                     0           5.55422e-07                     0
      wminv                     0                     0                     0
     wdelta                     0                     0                     0
      wrdsw                     0                     0                     0
       wrsw                     0                     0                     0
       wrdw                     0                     0                     0
      wprwg                     0                     0                     0
      wprwb                     0                     0                     0
       wprt                     0                     0                     0
      weta0                     0           2.77573e-07                     0
      wetab                     0                     0                     0
      wpclm           1.26382e-06                     0           1.26382e-06
   wpdiblc1                     0                     0                     0
   wpdiblc2                     0          -1.98523e-23                     0
   wpdiblcb                     0                     0                     0
    wfprout                     0                     0                     0
     wpdits                     0                     0                     0
    wpditsd                     0                     0                     0
    wpscbe1                     0                     0                     0
    wpscbe2                     0                     0                     0
      wpvag                     0                     0                     0
        wwr                     0                     0                     0
       wdwg                     0                     0                     0
       wdwb                     0                     0                     0
        wb0                     0                     0                     0
        wb1                     0                     0                     0
      wcgsl                     0                     0                     0
      wcgdl                     0                     0                     0
   wckappas                     0                     0                     0
   wckappad                     0                     0                     0
        wcf                     0                     0                     0
       wclc                     0                     0                     0
       wcle                     0                     0                     0
    walpha0          -3.87709e-12                     0          -3.87709e-12
    walpha1                     0                     0                     0
     wbeta0           4.25867e-06                     0           4.25867e-06
     wagidl                     0          -1.09684e-13                     0
     wbgidl                     0                     0                     0
     wcgidl                     0             0.0185758                     0
     wegidl                     0                     0                     0
      waigc                     0                     0                     0
      wbigc                     0                     0                     0
      wcigc                     0                     0                     0
     waigsd                     0                     0                     0
     wbigsd                     0                     0                     0
     wcigsd                     0                     0                     0
   waigbacc                     0                     0                     0
   wbigbacc                     0                     0                     0
   wcigbacc                     0                     0                     0
   waigbinv                     0                     0                     0
   wbigbinv                     0                     0                     0
   wcigbinv                     0                     0                     0
      wnigc                     0                     0                     0
   wnigbinv                     0                     0                     0
   wnigbacc                     0                     0                     0
      wntox                     0                     0                     0
   weigbinv                     0                     0                     0
     wpigcd                     0                     0                     0
   wpoxedge                     0                     0                     0
     wvfbcv                     0                     0                     0
       wvfb                     0                     0                     0
      wacde                     0                     0                     0
      wmoin                     0                     0                     0
      wnoff                     0                     0                     0
    wvoffcv                     0                     0                     0
    wxrcrg1                     0                     0                     0
    wxrcrg2                     0                     0                     0
    wlambda <<NAN, error = 7>> <<NAN, error = 7>> <<NAN, error = 7>>
       wvtl <<NAN, error = 7>> <<NAN, error = 7>> <<NAN, error = 7>>
        wxn <<NAN, error = 7>> <<NAN, error = 7>> <<NAN, error = 7>>
        weu                     0                     0                     0
  wvfbsdoff                     0                     0                     0
 wtvfbsdoff                     0                     0                     0
     wtvoff                     0                     0                     0
      pcdsc                     0                     0                     0
     pcdscb                     0                     0                     0
     pcdscd                     0                     0                     0
       pcit                     0                     0                     0
   pnfactor           6.61582e-13          -2.45525e-12           6.61582e-13
        pxj                     0                     0                     0
      pvsat            3.9052e-08                     0            3.9052e-08
        pat                     0                     0                     0
        pa0          -1.57838e-14          -4.17118e-13          -1.57838e-14
       pags           7.51278e-14           7.18171e-13           7.51278e-14
        pa1                     0                     0                     0
        pa2                     0                     0                     0
      pketa                     0                     0                     0
      pnsub                     0                     0                     0
      pndep                     0                     0                     0
       pnsd                     0                     0                     0
      pphin                     0                     0                     0
     pngate                     0                     0                     0
    pgamma1                     0                     0                     0
    pgamma2                     0                     0                     0
       pvbx                     0                     0                     0
       pvbm                     0                     0                     0
        pxt                     0                     0                     0
        pk1                     0                     0                     0
       pkt1                     0                     0                     0
      pkt1l                     0                     0                     0
       pkt2                     0                     0                     0
        pk2           1.31388e-14          -2.85308e-14           1.31388e-14
        pk3                     0                     0                     0
       pk3b                     0                     0                     0
        pw0                     0                     0                     0
     pdvtp0                     0                     0                     0
     pdvtp1                     0                     0                     0
      plpe0                     0                     0                     0
      plpeb                     0                     0                     0
      pdvt0                     0                     0                     0
      pdvt1                     0                     0                     0
      pdvt2                     0                     0                     0
     pdvt0w                     0                     0                     0
     pdvt1w                     0                     0                     0
     pdvt2w                     0                     0                     0
     pdrout                     0                     0                     0
      pdsub                     0           1.19337e-17                     0
      pvth0            2.7726e-14          -7.09604e-13            2.7726e-14
        pua           2.67428e-23            3.1439e-23           2.67428e-23
       pua1                     0                     0                     0
        pub          -8.26191e-31           1.02582e-29          -8.26191e-31
       pub1           -1.9224e-30                     0           -1.9224e-30
        puc          -3.12528e-24           2.93874e-39          -3.12528e-24
       puc1                     0                     0                     0
        pud                     0                     0                     0
       pud1                     0                     0                     0
        pup                     0                     0                     0
        plp                     0                     0                     0
        pu0          -7.35014e-15           3.91212e-14          -7.35014e-15
       pute                     0                     0                     0
      pvoff                     0          -3.93933e-13                     0
      pminv                     0                     0                     0
     pdelta                     0                     0                     0
      prdsw                     0                     0                     0
       prsw                     0                     0                     0
       prdw                     0                     0                     0
      pprwg                     0                     0                     0
      pprwb                     0                     0                     0
       pprt                     0                     0                     0
      peta0                     0          -1.96869e-13                     0
      petab                     0                     0                     0
      ppclm          -4.45175e-13                     0          -4.45175e-13
   ppdiblc1                     0                     0                     0
   ppdiblc2                     0           6.31089e-30                     0
   ppdiblcb                     0                     0                     0
    pfprout                     0                     0                     0
     ppdits                     0                     0                     0
    ppditsd                     0                     0                     0
    ppscbe1                     0                     0                     0
    ppscbe2                     0                     0                     0
      ppvag                     0                     0                     0
        pwr                     0                     0                     0
       pdwg                     0                     0                     0
       pdwb                     0                     0                     0
        pb0                     0                     0                     0
        pb1                     0                     0                     0
      pcgsl                     0                     0                     0
      pcgdl                     0                     0                     0
   pckappas                     0                     0                     0
   pckappad                     0                     0                     0
        pcf                     0                     0                     0
       pclc                     0                     0                     0
       pcle                     0                     0                     0
    palpha0           2.51124e-17           1.97215e-31           2.51124e-17
    palpha1                     0                     0                     0
     pbeta0          -7.87223e-15                     0          -7.87223e-15
     pagidl                     0           7.77937e-20                     0
     pbgidl                     0                     0                     0
     pcgidl                     0          -1.31749e-08                     0
     pegidl                     0                     0                     0
      paigc                     0                     0                     0
      pbigc                     0                     0                     0
      pcigc                     0                     0                     0
     paigsd                     0                     0                     0
     pbigsd                     0                     0                     0
     pcigsd                     0                     0                     0
   paigbacc                     0                     0                     0
   pbigbacc                     0                     0                     0
   pcigbacc                     0                     0                     0
   paigbinv                     0                     0                     0
   pbigbinv                     0                     0                     0
   pcigbinv                     0                     0                     0
      pnigc                     0                     0                     0
   pnigbinv                     0                     0                     0
   pnigbacc                     0                     0                     0
      pntox                     0                     0                     0
   peigbinv                     0                     0                     0
     ppigcd                     0                     0                     0
   ppoxedge                     0                     0                     0
     pvfbcv                     0                     0                     0
       pvfb                     0                     0                     0
      pacde                     0                     0                     0
      pmoin                     0                     0                     0
      pnoff                     0                     0                     0
    pvoffcv                     0                     0                     0
    pxrcrg1                     0                     0                     0
    pxrcrg2                     0                     0                     0
    plambda <<NAN, error = 7>> <<NAN, error = 7>> <<NAN, error = 7>>
       pvtl <<NAN, error = 7>> <<NAN, error = 7>> <<NAN, error = 7>>
        pxn <<NAN, error = 7>> <<NAN, error = 7>> <<NAN, error = 7>>
        peu                     0                     0                     0
  pvfbsdoff                     0                     0                     0
 ptvfbsdoff                     0                     0                     0
     ptvoff                     0                     0                     0
      saref              2.41e-06              2.41e-06              2.41e-06
      sbref              2.41e-06              2.41e-06              2.41e-06
       wlod                     0                     0                     0
        ku0                     0                     0                     0
      kvsat                     0                     0                     0
      kvth0                     0                     0                     0
       tku0                     0                     0                     0
    llodku0                     0                     0                     0
    wlodku0                     1                     1                     1
    llodvth                     0                     0                     0
    wlodvth                     1                     1                     1
       lku0                     0                     0                     0
       wku0                     0                     0                     0
       pku0                     0                     0                     0
     lkvth0                     0                     0                     0
     wkvth0                     0                     0                     0
     pkvth0                     0                     0                     0
       stk2                     0                     0                     0
      lodk2                     1                     1                     1
     steta0                     0                     0                     0
    lodeta0                     1                     1                     1
        web                     0                     0                     0
        wec                     0                     0                     0
    kvth0we                     0                     0                     0
       k2we                     0                     0                     0
      ku0we                     0                     0                     0
      scref                 1e-06                 1e-06                 1e-06
     wpemod                     0                     0                     0
   lkvth0we                     0                     0                     0
      lk2we                     0                     0                     0
     lku0we                     0                     0                     0
   wkvth0we                     0                     0                     0
      wk2we                     0                     0                     0
     wku0we                     0                     0                     0
   pkvth0we                     0                     0                     0
      pk2we                     0                     0                     0
     pku0we                     0                     0                     0
       noia               2.6e+41                 3e+40               2.6e+41
       noib                     0              8.53e+24                     0
       noic                     0               8.4e+07                     0
      tnoia               7.5e+06                   1.5               7.5e+06
      tnoib               7.2e+06                   3.5               7.2e+06
      rnoia                 0.794                 0.577                 0.794
      rnoib                  0.38                  0.37                  0.38
      ntnoi                     1                     1                     1
         em               4.1e+07               4.1e+07               4.1e+07
         ef                  0.89                  0.88                  0.89
         af                     1                     1                     1
         kf                     0                     0                     0
    vgs_max                 1e+99                 1e+99                 1e+99
    vgd_max                 1e+99                 1e+99                 1e+99
    vgb_max                 1e+99                 1e+99                 1e+99
    vds_max                 1e+99                 1e+99                 1e+99
    vbs_max                 1e+99                 1e+99                 1e+99
    vbd_max                 1e+99                 1e+99                 1e+99
   vgsr_max                 1e+99                 1e+99                 1e+99
   vgdr_max                 1e+99                 1e+99                 1e+99
   vgbr_max                 1e+99                 1e+99                 1e+99
   vbsr_max                 1e+99                 1e+99                 1e+99
   vbdr_max                 1e+99                 1e+99                 1e+99

 BSIM4v5 models (Berkeley Short Channel IGFET Model-4)
      model xstartup.xmp_sd:sky13 xstartup.xmn_pu:sky13 xstartup.xmn_gate:sky

     capmod                     2                     2                     2
     diomod                     1                     1                     1
     rdsmod                     0                     0                     0
   trnqsmod                     0                     0                     0
   acnqsmod                     0                     0                     0
     mobmod                     0                     0                     0
   rbodymod                     1                     1                     1
   rgatemod                     0                     0                     0
     permod                     1                     1                     1
     geomod                     0                     0                     0
    rgeomod                     0                     0                     0
    fnoimod                     1                     1                     1
    tnoimod                     1                     1                     1
     igcmod                     0                     0                     0
     igbmod                     0                     0                     0
    tempmod                     0                     0                     0
   paramchk                     1                     1                     1
    binunit                     2                     2                     2
    version                   4.5                   4.5                   4.5
       toxe             1.175e-08              1.16e-08              1.16e-08
       toxp             1.175e-08              1.16e-08              1.16e-08
       toxm             1.175e-08              1.16e-08              1.16e-08
     toxref             1.175e-08              1.16e-08              1.16e-08
       dtox                     0                     0                     0
     epsrox                   3.9                   3.9                   3.9
       cdsc                     0                     0                     0
      cdscb                     0                     0                     0
      cdscd                     0                     0                     0
        cit          -1.27312e-05               -0.0008               -0.0008
    nfactor              0.463163              0.918766              0.632986
         xj               1.5e-07               1.5e-07               1.5e-07
       vsat               9128.49                106095               62004.7
         at               47731.2                151449               70806.9
         a0                0.6588               2.12238               1.03886
        ags              0.977017              0.154326              0.339214
         a1                     0                     0                     0
         a2                   0.5              0.659726              0.659726
       keta              -0.15376            -0.0422806              -0.01066
       nsub                 6e+16                 6e+16                 6e+16
       ndep               1.7e+17               1.7e+17               1.7e+17
        nsd                 1e+20                 1e+20                 1e+20
[...]
        cgd           3.98629e-22          -5.23688e-15           3.98629e-22
        cbg          -2.08664e-15          -8.79627e-19          -2.08664e-15
        cbd           3.95073e-22          -2.96437e-15           3.95073e-22
        cbs          -6.24457e-17          -2.24936e-16          -6.24457e-17
        cdg          -3.52556e-17          -5.25251e-15          -3.52556e-17
        cdd           -3.0758e-22           5.46753e-15           -3.0758e-22
        cds           5.31775e-17           1.60719e-15           5.31775e-17
        csg          -5.28826e-17          -5.25251e-15          -5.28826e-17
        csd          -4.86123e-22           2.73371e-15          -4.86123e-22
        css           7.97651e-17           4.34101e-15           7.97651e-17
        cgb          -2.10428e-15           4.54233e-16          -2.10428e-15
        cdb          -1.79216e-17          -1.82221e-15          -1.79216e-17
        csb           -2.6882e-17          -1.82221e-15           -2.6882e-17
        cbb           2.14909e-15           3.19018e-15           2.14909e-15
      capbd           1.39381e-17           5.89256e-16           1.39381e-17
      capbs          -6.31774e-17           5.89256e-16          -6.31774e-17
         qg           2.27543e-15           6.69785e-14           2.27543e-15
         qb          -2.26466e-15          -5.11866e-15          -2.26466e-15
         qd          -4.30699e-18          -3.09299e-14          -4.30699e-18
         qs           -6.4604e-18          -3.09299e-14           -6.4604e-18
       qinv                     0                     0                     0
       qdef                     0                    -0                     0
       gcrg                     0                     0                     0
       gtau                     0                     0                     0

 BSIM4v5: Berkeley Short Channel IGFET Model-4
     device m.xstartup.xmp_sd.msk m.xstartup.xmn_pu.msk m.xstartup.xmn_gate.m
      model xstartup.xmp_sd:sky13 xstartup.xmn_pu:sky13 xstartup.xmn_gate:sky
          l                 1e-06                 8e-06                 1e-06
          w                 4e-06               4.2e-07                 5e-06
          m                     1                     1                     1
         nf                     1                     1                     1
         sa                     0                     0                     0
         sb                     0                     0                     0
         sd                     0                     0                     0
        sca                     0                     0                     0
        scb                     0                     0                     0
        scc                     0                     0                     0
         sc                     0                     0                     0
        min                     0                     0                     0
         ad                     0                     0                     0
         as                     0                     0                     0
         pd                     0                     0                     0
         ps                     0                     0                     0
        nrd                     0                     0                     0
        nrs                     0                     0                     0
        off                     0                     0                     0
       rbdb                    50                    50                    50
       rbsb                    50                    50                    50
       rbpb                    50                    50                    50
       rbps                    50                    50                    50
       rbpd                    50                    50                    50
     delvto                     0                     0                     0
      mulu0                     1                     1                     1
        xgw                     0                     0                     0
      ngcon                     1                     1                     1
   trnqsmod                     0                     0                     0
   acnqsmod                     0                     0                     0
   rbodymod                     1                     1                     1
   rgatemod                     0                     0                     0
     geomod                     0                     0                     0
    rgeomod                     0                     0                     0
       gmbs           1.02131e-12           6.18174e-22            7.7855e-12
         gm           7.70482e-13           4.92236e-21           1.38763e-11
        gds           0.000502652           3.17317e-24            3.0107e-14
      vdsat               3.37981              0.050629             0.0376752
        vth              0.974807               1.97255               0.81618
         id           1.17995e-11           1.15669e-22            7.9107e-13
        ibd          -3.01324e-20             -7.01e-12             -6.01e-12
        ibs           -1.1402e-27             -6.01e-12           8.56281e-23
        gbd           1.28362e-12                 1e-12                 1e-12
        gbs           1.28362e-12                 1e-12           1.35889e-12
       isub           1.04449e-34           8.23984e-34           4.11229e-13
      igidl                     0                     0           1.62482e-12
      igisl                     0                     0                     0
        igs                     0                     0                     0
        igd                     0                     0                     0
        igb                     0                     0                     0
       igcs                     0                     0                     0
       igcd                     0                     0                     0
        vbs          -8.88178e-16                    -6           1.26026e-10
        vgs               6.99809                     1            0.00190516
        vds           2.34745e-08                     1                     6
        cgg           1.05059e-14           1.41427e-15            5.4201e-15
        cgs          -5.72326e-15          -1.42181e-17          -1.65483e-16
        cgd          -5.23688e-15          -9.90679e-22           9.19387e-22
        cbg          -8.79627e-19          -1.39887e-15          -5.21312e-15
        cbd          -2.96437e-15          -9.36452e-23           9.12932e-22
        cbs          -2.24936e-16          -3.11841e-18          -1.45297e-16
        cdg          -5.25251e-15          -6.16313e-18          -8.27938e-17
        cdd           5.46753e-15           8.61222e-22          -6.97079e-22
        cds           1.60719e-15           6.93676e-18           1.24313e-16
        csg          -5.25251e-15          -9.23893e-18          -1.24188e-16
        csd           2.73371e-15           2.23101e-22          -1.13524e-21
        css           4.34101e-15           1.03997e-17           1.86467e-16
        cgb           4.54233e-16          -1.40005e-15          -5.25462e-15
        cdb          -1.82221e-15          -7.74497e-19          -4.15189e-17
        csb          -1.82221e-15            -1.161e-18          -6.22771e-17
        cbb           3.19018e-15           1.40199e-15           5.35842e-15
      capbd           5.89256e-16             2.927e-18           3.89676e-17
      capbs           5.89256e-16           3.27328e-18          -1.57943e-16
         qg           6.69785e-14           1.89487e-14           5.70578e-15
         qb          -5.11866e-15          -1.89472e-14          -5.68117e-15
         qd          -3.09299e-14          -5.92413e-19          -9.84377e-18
         qs          -3.09299e-14          -8.88067e-19          -1.47654e-17
       qinv                     0                     0                     0
       qdef                    -0                     0                     0
       gcrg                     0                     0                     0
       gtau                     0                     0                     0

 BSIM4v5: Berkeley Short Channel IGFET Model-4
     device m.xstartup.xmn_det.ms
      model xstartup.xmn_det:sky1
          l                 1e-06
          w                 1e-05
          m                     1
         nf                     1
         sa                     0
         sb                     0
         sd                     0
        sca                     0
        scb                     0
        scc                     0
         sc                     0
        min                     0
         ad                     0
         as                     0
         pd                     0
         ps                     0
        nrd                     0
        nrs                     0
        off                     0
       rbdb                    50
       rbsb                    50
       rbpb                    50
       rbps                    50
       rbpd                    50
     delvto                     0
      mulu0                     1
        xgw                     0
      ngcon                     1
   trnqsmod                     0
   acnqsmod                     0
   rbodymod                     1
   rgatemod                     0
     geomod                     0
    rgeomod                     0
       gmbs           8.22895e-07
         gm           2.06143e-06
        gds           0.000114192
      vdsat              0.103072
        vth              0.812549
         id           2.19796e-07
        ibd          -2.56606e-15
        ibs           2.17933e-26
        gbd           1.33517e-12
        gbs           1.35889e-12
       isub           2.19953e-24
      igidl                     0
      igisl                     0
        igs                     0
        igd                     0
        igb                     0
       igcs                     0
       igcd                     0
        vbs           3.20758e-14
        vgs              0.899067
        vds            0.00190516
        cgg           2.39101e-14
        cgs          -9.36625e-15
        cgd          -1.16855e-14
        cbg          -1.82869e-16
        cbd          -9.08383e-15
        cbs          -3.00166e-15
        cdg          -1.18626e-14
        cdd           1.38542e-14
        cds           2.71175e-15
        csg          -1.18646e-14
        csd           6.91516e-15
        css           9.65616e-15
        cgb          -2.85835e-15
        cdb          -4.70331e-15
        csb           -4.7067e-15
        cbb           1.22684e-14
      capbd           5.46286e-16
      capbs          -3.15887e-16
         qg           2.69266e-14
         qb          -1.53518e-14
         qd          -5.78083e-15
         qs          -5.79405e-15
       qinv                     0
       qdef                     0
       gcrg                     0
       gtau                     0

 Capacitor: Fixed capacitor
     device c.xstartup.xr_gate.xc c.xstartup.xr_gate.xc c.xstartup.xr_pu.xc0.
      model                     C                     C                     C
capacitance              2.55e-15              2.55e-15            7.5005e-13
      dtemp                     0                     0                     0
     bv_max                 1e+99                 1e+99                 1e+99
          i                     0                     0                     0
          p                     0                     0                     0

 Capacitor: Fixed capacitor
     device c.xstartup.xr_pu.xc0. c.xstartup.xr_bot.xc0 c.xstartup.xr_bot.xc0
      model                     C                     C                     C
capacitance            7.5005e-13               1.8e-13               1.8e-13
      dtemp                     0                     0                     0
     bv_max                 1e+99                 1e+99                 1e+99
          i                     0                     0                     0
          p                     0                     0                     0

 Capacitor: Fixed capacitor
     device c.xstartup.xr_top.xc0 c.xstartup.xr_top.xc0
      model                     C                     C
capacitance               8.2e-13               8.2e-13
      dtemp                     0                     0
     bv_max                 1e+99                 1e+99
          i                     0                     0
          p                     0                     0

 Resistor: Simple linear resistor
     device r.xstartup.xr_gate.re r.xstartup.xr_gate.re r.xstartup.xr_pu.rend
      model xstartup.xr_gate:resh xstartup.xr_gate:resh xstartup.xr_pu:reshea
 resistance                79.949                79.949                79.949
         ac                79.949                79.949                79.949
      dtemp                     0                     0                     0
     bv_max                 1e+99                 1e+99                 1e+99
      noisy                     1                     1                     1
          i           8.83712e-12           8.83712e-12           2.19796e-07
          p           6.23789e-21           6.23789e-21           3.85883e-12

 Resistor: Simple linear resistor
     device r.xstartup.xr_pu.rend r.xstartup.xr_bot.ren r.xstartup.xr_bot.ren
      model xstartup.xr_pu:reshea xstartup.xr_bot:reshe xstartup.xr_bot:reshe
 resistance                79.949               56.1121               56.1121
         ac                79.949               56.1121               56.1121
      dtemp                     0                     0                     0
     bv_max                 1e+99                 1e+99                 1e+99
      noisy                     1                     1                     1
          i           2.19796e-07           4.85369e-07           4.85369e-07
          p           3.85883e-12            1.3207e-11            1.3207e-11

 Resistor: Simple linear resistor
     device r.xstartup.xr_top.ren r.xstartup.xr_top.ren
      model xstartup.xr_top:reshe xstartup.xr_top:reshe
 resistance               56.1121               56.1121
         ac               56.1121               56.1121
      dtemp                     0                     0
     bv_max                 1e+99                 1e+99
      noisy                     1                     1
          i           4.85369e-07           4.85369e-07
          p            1.3207e-11            1.3207e-11

 Vsource: Independent voltage source
     device                  vref                 vgate                 vpvdd
         dc                 1.226                     6                     5
      acmag                     0                     0                     0
      pulse         -         -         -
        sin         -         -         -
        exp         -         -         -
        pwl         -         -         -
       sffm         -         -         -
         am         -         -         -
    trnoise         -         -         -
   trrandom         -         -         -
    portnum                     0                     0                     0
         z0                     0                     0                     0
        pwr                     0                     0                     0
       freq                     0                     0                     0
      phase                     0                     0                     0
          i                     0          -1.48471e-11          -4.85369e-07
          p                     0          -8.90827e-11          -2.42684e-06

 Vsource: Independent voltage source
     device                 vbvdd
         dc                     7
      acmag                     0
      pulse         -
        sin         -
        exp         -
        pwl         -
       sffm         -
         am         -
    trnoise         -
   trrandom         -
    portnum                     0
         z0                     0
        pwr                     0
       freq                     0
      phase                     0
          i          -2.19827e-07
          p          -1.53879e-06


Total analysis time (seconds) = 0.003

Total elapsed time (seconds) = 0.341 

Total DRAM available = 3834.176 MB.
DRAM currently available =  184.012 MB.
Maximum ngspice program size =   36.945 MB.
Current ngspice program size =   20.375 MB.

Shared ngspice pages =   10.734 MB.
Text (code) pages =    6.156 MB.
Stack = 0 bytes.
Library pages =   17.699 MB.


--- Running tb_su_pvt.spice ---
Using SPARSE 1.3 as Direct Linear Solver

Note: No compatibility mode selected!


Circuit: * tb_su_pvt.spice — pvt corner analysis

Doing analysis at TEMP = 27.000000 and TNOM = 27.000000

Using transient initial conditions
 Reference value :  1.00000e-09 Reference value :  2.34500e-05 Reference value :  5.69500e-05 Reference value :  9.03500e-05 Reference value :  1.19250e-04 Reference value :  1.51250e-04 Reference value :  1.73050e-04Using SPARSE 1.3 as Direct Linear Solver

No. of Data Rows : 2030
pvdd_max_tt27       =  7.000318e+00 at=  7.030000e-06
TT 27C: peak=7.00032 V, final=5.95746 V
Reset re-loads circuit * tb_su_pvt.spice — pvt corner analysis

Circuit: * tb_su_pvt.spice — pvt corner analysis

Doing analysis at TEMP = -40.000000 and TNOM = 27.000000

Using transient initial conditions
 Reference value :  1.00000e-09 Reference value :  2.49049e-05 Reference value :  5.79049e-05 Reference value :  8.83049e-05 Reference value :  1.08605e-04 Reference value :  1.43305e-04 Reference value :  1.79005e-04Using SPARSE 1.3 as Direct Linear Solver

No. of Data Rows : 2031
pvdd_max_m40        =  6.999950e+00 at=  3.120492e-05
TT -40C: peak=6.99995 V
Reset re-loads circuit * tb_su_pvt.spice — pvt corner analysis

Circuit: * tb_su_pvt.spice — pvt corner analysis

Doing analysis at TEMP = 150.000000 and TNOM = 27.000000

Using transient initial conditions
 Reference value :  1.00000e-09 Reference value :  2.86500e-05 Reference value :  4.28500e-05 Reference value :  7.68500e-05 Reference value :  1.10850e-04 Reference value :  1.45350e-04 Reference value :  1.79850e-04Warning from checkvalid: vector pm40 is not available or has zero length.
Error: RHS "(pm40 - 5.0) * 1000" invalid
Warning from checkvalid: vector ovs_m40 is not available or has zero length.

No. of Data Rows : 2025
pvdd_max_150        =  7.000266e+00 at=  7.030000e-06
TT 150C: peak=7.00027 V, final=6.15316 V
works_ss_150c: 1
no_latch_stuck: 1
no_overshoot_ff_m40: 1
startup_time_ss150_us: 0
Note: Simulation executed from .control section 

--- Evaluation ---
---
* startup_time_ss150_us                     0  us        (spec <= 100.0)  PASS
  startup_time_50mA_us                      5  us        (spec <= 200.0)  PASS
  pvdd_monotonic                            1  bool      (spec >= 1.0)  PASS
  pvdd_overshoot_mV                      1219  mV        (spec <= 200.0)  FAIL
  handoff_glitch_mV                        50  mV        (spec <= 100.0)  PASS
  works_slow_ramp                           1  bool      (spec >= 1.0)  PASS
  works_fast_ramp                           1  bool      (spec >= 1.0)  PASS
  cold_crank_ok                             1  bool      (spec >= 1.0)  PASS
  leakage_after_uA                     0.2198  uA        (spec <= 1.0)  PASS
  no_overshoot_ff_m40                       1  bool      (spec >= 1.0)  PASS
  no_latch_stuck                            1  bool      (spec >= 1.0)  PASS
specs_pass: 10/11
primary (startup_time_ss150_us): 0

Run finished: Sun Mar 29 17:27:25 UTC 2026
