=== Block 09: Startup Circuit ===
Run started: Mon Mar 30 01:01:04 UTC 2026

--- Running tb_su_basic.spice ---
Using SPARSE 1.3 as Direct Linear Solver

Note: No compatibility mode selected!


Circuit: * tb_su_basic.spice — basic startup test, tt 27c, 1v/us, no load

Doing analysis at TEMP = 27.000000 and TNOM = 27.000000

Using transient initial conditions
 Reference value :  1.00000e-09 Reference value :  8.52844e-07 Reference value :  2.52612e-06 Reference value :  4.92612e-06 Reference value :  7.15000e-06 Reference value :  8.39744e-06 Reference value :  9.01164e-06 Reference value :  1.11116e-05 Reference value :  1.33116e-05 Reference value :  1.54116e-05 Reference value :  1.81116e-05 Reference value :  2.44116e-05 Reference value :  3.37116e-05 Reference value :  3.94116e-05 Reference value :  5.01116e-05 Reference value :  5.96116e-05 Reference value :  6.62116e-05 Reference value :  7.41116e-05 Reference value :  7.70116e-05 Reference value :  7.99116e-05 Reference value :  8.24116e-05 Reference value :  8.50116e-05 Reference value :  9.16116e-05 Reference value :  9.74116e-05 Reference value :  1.07112e-04 Reference value :  1.10512e-04 Reference value :  1.13012e-04 Reference value :  1.15612e-04 Reference value :  1.18212e-04 Reference value :  1.20812e-04 Reference value :  1.23412e-04 Reference value :  1.26012e-04 Reference value :  1.28612e-04 Reference value :  1.31212e-04 Reference value :  1.33812e-04 Reference value :  1.36612e-04 Reference value :  1.39812e-04 Reference value :  1.43012e-04 Reference value :  1.46212e-04 Reference value :  1.49412e-04 Reference value :  1.52612e-04 Reference value :  1.55812e-04 Reference value :  1.59012e-04 Reference value :  1.62212e-04 Reference value :  1.65512e-04 Reference value :  1.68712e-04 Reference value :  1.71912e-04 Reference value :  1.75112e-04 Reference value :  1.78312e-04 Reference value :  1.81512e-04 Reference value :  1.84712e-04 Reference value :  1.87912e-04 Reference value :  1.91112e-04 Reference value :  1.94312e-04 Reference value :  1.97512e-04 Reference value :  2.00712e-04 Reference value :  2.03912e-04 Reference value :  2.07112e-04 Reference value :  2.13512e-04 Reference value :  2.27012e-04 Reference value :  2.36712e-04 Reference value :  2.45512e-04 Reference value :  2.50812e-04 Reference value :  2.54212e-04 Reference value :  2.57412e-04 Reference value :  2.60612e-04 Reference value :  2.63912e-04 Reference value :  2.67112e-04 Reference value :  2.70312e-04 Reference value :  2.73712e-04 Reference value :  2.81512e-04 Reference value :  2.96912e-04 Reference value :  3.05012e-04 Reference value :  3.08212e-04 Reference value :  3.12612e-04 Reference value :  3.20812e-04 Reference value :  3.24012e-04 Reference value :  3.27212e-04 Reference value :  3.30412e-04 Reference value :  3.34912e-04 Reference value :  3.44312e-04 Reference value :  3.53312e-04 Reference value :  3.62112e-04 Reference value :  3.67912e-04 Reference value :  3.79712e-04 Reference value :  3.95012e-04 Reference value :  4.11012e-04 Reference value :  4.17612e-04 Reference value :  4.20812e-04 Reference value :  4.24012e-04 Reference value :  4.27212e-04 Reference value :  4.30412e-04 Reference value :  4.33612e-04 Reference value :  4.36812e-04 Reference value :  4.40012e-04 Reference value :  4.43212e-04 Reference value :  4.46412e-04 Reference value :  4.49912e-04 Reference value :  4.53112e-04 Reference value :  4.56312e-04 Reference value :  4.59512e-04 Reference value :  4.62712e-04 Reference value :  4.65912e-04 Reference value :  4.69112e-04 Reference value :  4.72312e-04 Reference value :  4.75612e-04 Reference value :  4.78812e-04 Reference value :  4.82012e-04 Reference value :  4.85212e-04 Reference value :  4.88412e-04 Reference value :  4.91612e-04 Reference value :  4.94812e-04 Reference value :  4.98112e-04 Reference value :  5.01312e-04 Reference value :  5.04512e-04 Reference value :  5.07712e-04 Reference value :  5.10912e-04 Reference value :  5.14112e-04 Reference value :  5.17312e-04 Reference value :  5.20512e-04 Reference value :  5.23712e-04 Reference value :  5.26912e-04 Reference value :  5.30112e-04 Reference value :  5.33312e-04 Reference value :  5.36512e-04 Reference value :  5.39712e-04 Reference value :  5.42912e-04 Reference value :  5.46112e-04 Reference value :  5.49312e-04 Reference value :  5.52512e-04 Reference value :  5.55612e-04 Reference value :  5.58812e-04 Reference value :  5.62012e-04 Reference value :  5.65212e-04 Reference value :  5.71412e-04 Reference value :  5.80712e-04 Reference value :  5.92412e-04 Reference value :  6.04712e-04 Reference value :  6.07912e-04 Reference value :  6.11112e-04 Reference value :  6.14312e-04 Reference value :  6.17512e-04 Reference value :  6.20712e-04 Reference value :  6.23912e-04 Reference value :  6.27112e-04 Reference value :  6.30312e-04 Reference value :  6.33512e-04 Reference value :  6.36712e-04 Reference value :  6.39912e-04 Reference value :  6.43112e-04 Reference value :  6.46312e-04 Reference value :  6.49512e-04 Reference value :  6.52712e-04 Reference value :  6.55912e-04 Reference value :  6.59112e-04 Reference value :  6.62312e-04 Reference value :  6.65512e-04 Reference value :  6.68712e-04 Reference value :  6.71912e-04 Reference value :  6.75112e-04 Reference value :  6.78312e-04 Reference value :  6.81512e-04 Reference value :  6.84712e-04 Reference value :  6.87912e-04 Reference value :  6.91112e-04 Reference value :  6.94412e-04 Reference value :  6.97612e-04 Reference value :  7.00812e-04 Reference value :  7.04012e-04 Reference value :  7.07212e-04 Reference value :  7.10412e-04 Reference value :  7.13612e-04 Reference value :  7.16912e-04 Reference value :  7.20112e-04 Reference value :  7.23312e-04 Reference value :  7.26512e-04 Reference value :  7.29712e-04 Reference value :  7.32912e-04 Reference value :  7.36112e-04 Reference value :  7.39312e-04 Reference value :  7.42512e-04 Reference value :  7.45912e-04 Reference value :  7.50812e-04 Reference value :  7.57512e-04 Reference value :  7.62812e-04 Reference value :  7.69112e-04 Reference value :  7.72312e-04 Reference value :  7.75512e-04 Reference value :  7.78712e-04 Reference value :  7.81912e-04 Reference value :  7.85112e-04 Reference value :  7.88312e-04 Reference value :  7.91512e-04 Reference value :  7.94712e-04 Reference value :  7.97912e-04
No. of Data Rows : 8029

  Measurements for Transient Analysis

t_bvdd_56           =   5.60000e-06
t_pvdd_settle       =   8.70127e-06
pvdd_max            =  5.175229e+00 at=  4.613116e-04

Warning from checkvalid: vector t_pvdd_settle is not available or has zero length.
Using SPARSE 1.3 as Direct Linear Solver
startup_time_basic_us: 999
pvdd_overshoot_mV: 175.229
pvdd_peak_V: 5.17523
min_dpvdd_V_per_s: -21307.1
pvdd_monotonic: 1
pvdd_final          =  4.978794e+00
pvdd_final_V: 4.97879
no_latch_stuck: 1
Doing analysis at TEMP = 27.000000 and TNOM = 27.000000

Using transient initial conditions
 Reference value :  1.02795e-09 Reference value :  1.15284e-06 Reference value :  3.12612e-06 Reference value :  5.32612e-06 Reference value :  7.42851e-06 Reference value :  8.42881e-06 Reference value :  9.61164e-06 Reference value :  1.18116e-05 Reference value :  1.39116e-05 Reference value :  1.60116e-05 Reference value :  1.81116e-05 Reference value :  2.04116e-05 Reference value :  2.30116e-05 Reference value :  2.56116e-05 Reference value :  2.82116e-05 Reference value :  3.08116e-05 Reference value :  3.34116e-05 Reference value :  3.60116e-05 Reference value :  3.86116e-05 Reference value :  4.12116e-05 Reference value :  4.38116e-05 Reference value :  4.64116e-05 Reference value :  4.90116e-05 Reference value :  5.16116e-05 Reference value :  5.41116e-05 Reference value :  5.66116e-05 Reference value :  5.92116e-05 Reference value :  6.18116e-05 Reference value :  6.44116e-05 Reference value :  6.70116e-05 Reference value :  6.96116e-05 Reference value :  7.22116e-05 Reference value :  7.68116e-05 Reference value :  8.16116e-05 Reference value :  8.78116e-05 Reference value :  9.90116e-05 Reference value :  1.01612e-04 Reference value :  1.04212e-04 Reference value :  1.06812e-04 Reference value :  1.09412e-04 Reference value :  1.12012e-04 Reference value :  1.14612e-04 Reference value :  1.17112e-04 Reference value :  1.19612e-04 Reference value :  1.22212e-04 Reference value :  1.24812e-04 Reference value :  1.27412e-04 Reference value :  1.30012e-04 Reference value :  1.32612e-04 Reference value :  1.35212e-04 Reference value :  1.38312e-04 Reference value :  1.41512e-04 Reference value :  1.44712e-04 Reference value :  1.47912e-04 Reference value :  1.51112e-04 Reference value :  1.54312e-04 Reference value :  1.57512e-04 Reference value :  1.60712e-04 Reference value :  1.63912e-04 Reference value :  1.71112e-04 Reference value :  1.81212e-04 Reference value :  1.95812e-04 Reference value :  2.09112e-04 Reference value :  2.12312e-04 Reference value :  2.15512e-04 Reference value :  2.18712e-04 Reference value :  2.21912e-04 Reference value :  2.25112e-04 Reference value :  2.28312e-04 Reference value :  2.31512e-04 Reference value :  2.34712e-04 Reference value :  2.37912e-04 Reference value :  2.41112e-04 Reference value :  2.44312e-04 Reference value :  2.47512e-04 Reference value :  2.50712e-04 Reference value :  2.53912e-04 Reference value :  2.57112e-04 Reference value :  2.60412e-04 Reference value :  2.63612e-04 Reference value :  2.66812e-04 Reference value :  2.70012e-04 Reference value :  2.73212e-04 Reference value :  2.76512e-04 Reference value :  2.79712e-04 Reference value :  2.82912e-04 Reference value :  2.86112e-04 Reference value :  2.89312e-04 Reference value :  2.92512e-04 Reference value :  2.95712e-04 Reference value :  2.98912e-04 Reference value :  3.02112e-04 Reference value :  3.05312e-04 Reference value :  3.08512e-04 Reference value :  3.11712e-04 Reference value :  3.14912e-04 Reference value :  3.18112e-04 Reference value :  3.21312e-04 Reference value :  3.24512e-04 Reference value :  3.27712e-04 Reference value :  3.30912e-04 Reference value :  3.34112e-04 Reference value :  3.37312e-04 Reference value :  3.40512e-04 Reference value :  3.43712e-04 Reference value :  3.46912e-04 Reference value :  3.50112e-04 Reference value :  3.53312e-04 Reference value :  3.56512e-04 Reference value :  3.59712e-04 Reference value :  3.62912e-04 Reference value :  3.66112e-04 Reference value :  3.69312e-04 Reference value :  3.73012e-04 Reference value :  3.76212e-04 Reference value :  3.79412e-04 Reference value :  3.82612e-04 Reference value :  3.85812e-04 Reference value :  3.89012e-04 Reference value :  3.92212e-04 Reference value :  3.95412e-04 Reference value :  3.98612e-04 Reference value :  4.01812e-04 Reference value :  4.05012e-04 Reference value :  4.08212e-04 Reference value :  4.11412e-04 Reference value :  4.14612e-04 Reference value :  4.17812e-04 Reference value :  4.21012e-04 Reference value :  4.24212e-04 Reference value :  4.27412e-04 Reference value :  4.30612e-04 Reference value :  4.33812e-04 Reference value :  4.37012e-04 Reference value :  4.40312e-04 Reference value :  4.52212e-04 Reference value :  4.59212e-04 Reference value :  4.69712e-04 Reference value :  4.86212e-04 Reference value :  5.01512e-04 Reference value :  5.05712e-04 Reference value :  5.08912e-04 Reference value :  5.12112e-04 Reference value :  5.15312e-04 Reference value :  5.18612e-04 Reference value :  5.23112e-04 Reference value :  5.26312e-04 Reference value :  5.29612e-04 Reference value :  5.32812e-04 Reference value :  5.36012e-04 Reference value :  5.39212e-04 Reference value :  5.42412e-04 Reference value :  5.45612e-04 Reference value :  5.48812e-04 Reference value :  5.52012e-04 Reference value :  5.55212e-04 Reference value :  5.58412e-04 Reference value :  5.61612e-04 Reference value :  5.64812e-04 Reference value :  5.68012e-04 Reference value :  5.71212e-04 Reference value :  5.74412e-04 Reference value :  5.77612e-04 Reference value :  5.80812e-04 Reference value :  5.84012e-04 Reference value :  5.87212e-04 Reference value :  5.90412e-04 Reference value :  5.93612e-04 Reference value :  5.96812e-04 Reference value :  6.00012e-04 Reference value :  6.03212e-04 Reference value :  6.06412e-04 Reference value :  6.09612e-04 Reference value :  6.12812e-04 Reference value :  6.16012e-04 Reference value :  6.19212e-04 Reference value :  6.22412e-04 Reference value :  6.25612e-04 Reference value :  6.33012e-04 Reference value :  6.47112e-04 Reference value :  6.58312e-04 Reference value :  6.74312e-04 Reference value :  6.79512e-04 Reference value :  6.82812e-04 Reference value :  6.90912e-04 Reference value :  6.99212e-04 Reference value :  7.02412e-04 Reference value :  7.05612e-04 Reference value :  7.08812e-04 Reference value :  7.12012e-04 Reference value :  7.15312e-04 Reference value :  7.18512e-04 Reference value :  7.21712e-04 Reference value :  7.24912e-04 Reference value :  7.28112e-04 Reference value :  7.31312e-04 Reference value :  7.34512e-04 Reference value :  7.37712e-04 Reference value :  7.40912e-04 Reference value :  7.44112e-04 Reference value :  7.47312e-04 Reference value :  7.50512e-04 Reference value :  7.53712e-04 Reference value :  7.56912e-04 Reference value :  7.60112e-04 Reference value :  7.63312e-04 Reference value :  7.66512e-04 Reference value :  7.69712e-04 Reference value :  7.72912e-04 Reference value :  7.76212e-04 Reference value :  7.82812e-04 Reference value :  7.99112e-04
No. of Data Rows : 8029

  Measurements for Transient Analysis

t_bvdd_56           =   5.60000e-06
t_pvdd_settle       =   8.70127e-06
pvdd_max            =  5.175229e+00 at=  4.613116e-04


Total analysis time (seconds) = 105.361

Total elapsed time (seconds) = 106.488 

Total DRAM available = 3834.176 MB.
DRAM currently available =  583.129 MB.
Maximum ngspice program size =   62.711 MB.
Current ngspice program size =   46.004 MB.

Shared ngspice pages =   10.652 MB.
Text (code) pages =    6.156 MB.
Stack = 0 bytes.
Library pages =   43.465 MB.


--- Running tb_su_handoff.spice ---
Using SPARSE 1.3 as Direct Linear Solver

Note: No compatibility mode selected!


Circuit: * tb_su_handoff.spice — handoff glitch test, tt 27c, 1v/us, no load

Doing analysis at TEMP = 27.000000 and TNOM = 27.000000

Using transient initial conditions
 Reference value :  1.00000e-09 Reference value :  9.52844e-07 Reference value :  2.52612e-06 Reference value :  4.92612e-06 Reference value :  7.23353e-06 Reference value :  8.39744e-06 Reference value :  9.01164e-06 Reference value :  1.11116e-05 Reference value :  1.32116e-05 Reference value :  1.53116e-05 Reference value :  1.74116e-05 Reference value :  1.95116e-05 Reference value :  2.20116e-05 Reference value :  2.46116e-05 Reference value :  2.72116e-05 Reference value :  2.98116e-05 Reference value :  3.24116e-05 Reference value :  3.50116e-05 Reference value :  3.76116e-05 Reference value :  4.02116e-05 Reference value :  4.28116e-05 Reference value :  4.54116e-05 Reference value :  4.80116e-05 Reference value :  5.06116e-05 Reference value :  5.32116e-05 Reference value :  5.58116e-05 Reference value :  5.84116e-05 Reference value :  6.10116e-05 Reference value :  6.36116e-05 Reference value :  6.62116e-05 Reference value :  6.88116e-05 Reference value :  7.14116e-05 Reference value :  7.40116e-05 Reference value :  7.66116e-05 Reference value :  7.92116e-05 Reference value :  8.18116e-05 Reference value :  8.44116e-05 Reference value :  8.70116e-05 Reference value :  8.96116e-05 Reference value :  9.22116e-05 Reference value :  9.48116e-05 Reference value :  9.74116e-05 Reference value :  1.00012e-04 Reference value :  1.02612e-04 Reference value :  1.05212e-04 Reference value :  1.07812e-04 Reference value :  1.10412e-04 Reference value :  1.13012e-04 Reference value :  1.15612e-04 Reference value :  1.18212e-04 Reference value :  1.20812e-04 Reference value :  1.23412e-04 Reference value :  1.26012e-04 Reference value :  1.28612e-04 Reference value :  1.31212e-04 Reference value :  1.35712e-04 Reference value :  1.56112e-04 Reference value :  1.64212e-04 Reference value :  1.79212e-04 Reference value :  1.92012e-04 Reference value :  1.95212e-04 Reference value :  1.98412e-04 Reference value :  2.01612e-04 Reference value :  2.04912e-04 Reference value :  2.08112e-04 Reference value :  2.11312e-04 Reference value :  2.14512e-04 Reference value :  2.17712e-04 Reference value :  2.20912e-04 Reference value :  2.24112e-04 Reference value :  2.27312e-04 Reference value :  2.30512e-04 Reference value :  2.33712e-04 Reference value :  2.36912e-04 Reference value :  2.40112e-04 Reference value :  2.43312e-04 Reference value :  2.46512e-04 Reference value :  2.49712e-04 Reference value :  2.52912e-04 Reference value :  2.56212e-04 Reference value :  2.59412e-04 Reference value :  2.62612e-04 Reference value :  2.65812e-04 Reference value :  2.69012e-04 Reference value :  2.72212e-04 Reference value :  2.75412e-04 Reference value :  2.78612e-04 Reference value :  2.81812e-04 Reference value :  2.85012e-04 Reference value :  2.88212e-04 Reference value :  2.91412e-04 Reference value :  2.94612e-04 Reference value :  2.97812e-04 Reference value :  3.01012e-04 Reference value :  3.04212e-04 Reference value :  3.07412e-04 Reference value :  3.10612e-04 Reference value :  3.13812e-04 Reference value :  3.17012e-04 Reference value :  3.20212e-04 Reference value :  3.23412e-04 Reference value :  3.26612e-04 Reference value :  3.29812e-04 Reference value :  3.33012e-04 Reference value :  3.36212e-04 Reference value :  3.39412e-04 Reference value :  3.42612e-04 Reference value :  3.45812e-04 Reference value :  3.49012e-04 Reference value :  3.52212e-04 Reference value :  3.55412e-04 Reference value :  3.58612e-04 Reference value :  3.61812e-04 Reference value :  3.65012e-04 Reference value :  3.68212e-04 Reference value :  3.71412e-04 Reference value :  3.74612e-04 Reference value :  3.77812e-04 Reference value :  3.81112e-04 Reference value :  3.84312e-04 Reference value :  3.87512e-04 Reference value :  3.90712e-04 Reference value :  3.93912e-04 Reference value :  3.97112e-04 Reference value :  4.00312e-04 Reference value :  4.03512e-04 Reference value :  4.06712e-04 Reference value :  4.09912e-04 Reference value :  4.13112e-04 Reference value :  4.16312e-04 Reference value :  4.19512e-04 Reference value :  4.22712e-04 Reference value :  4.25912e-04 Reference value :  4.29212e-04 Reference value :  4.32412e-04 Reference value :  4.35612e-04 Reference value :  4.38812e-04 Reference value :  4.42012e-04 Reference value :  4.45212e-04 Reference value :  4.48412e-04 Reference value :  4.51612e-04 Reference value :  4.55012e-04 Reference value :  4.58212e-04 Reference value :  4.61412e-04 Reference value :  4.64612e-04 Reference value :  4.67812e-04 Reference value :  4.71012e-04 Reference value :  4.74212e-04 Reference value :  4.77412e-04 Reference value :  4.80612e-04 Reference value :  4.83812e-04 Reference value :  4.87012e-04 Reference value :  4.90212e-04 Reference value :  4.93412e-04 Reference value :  4.96612e-04 Reference value :  4.99812e-04 Reference value :  5.03012e-04 Reference value :  5.06212e-04 Reference value :  5.09412e-04 Reference value :  5.12612e-04 Reference value :  5.15812e-04 Reference value :  5.19012e-04 Reference value :  5.22212e-04 Reference value :  5.25412e-04 Reference value :  5.28612e-04 Reference value :  5.31812e-04 Reference value :  5.35012e-04 Reference value :  5.38212e-04 Reference value :  5.41412e-04 Reference value :  5.44612e-04 Reference value :  5.47812e-04 Reference value :  5.51012e-04 Reference value :  5.54212e-04 Reference value :  5.57412e-04 Reference value :  5.60612e-04 Reference value :  5.63812e-04 Reference value :  5.67012e-04 Reference value :  5.70212e-04 Reference value :  5.73412e-04 Reference value :  5.76612e-04 Reference value :  5.79812e-04 Reference value :  5.83012e-04 Reference value :  5.86212e-04 Reference value :  5.89412e-04 Reference value :  5.93212e-04 Reference value :  5.96412e-04 Reference value :  5.99612e-04 Reference value :  6.02812e-04 Reference value :  6.06012e-04 Reference value :  6.09212e-04 Reference value :  6.12412e-04 Reference value :  6.15612e-04 Reference value :  6.18712e-04 Reference value :  6.22012e-04 Reference value :  6.25212e-04 Reference value :  6.28412e-04 Reference value :  6.31612e-04 Reference value :  6.34912e-04 Reference value :  6.38112e-04 Reference value :  6.41312e-04 Reference value :  6.46312e-04 Reference value :  6.60012e-04 Reference value :  6.87412e-04 Reference value :  7.14912e-04 Reference value :  7.42412e-04 Reference value :  7.70012e-04 Reference value :  7.96512e-04
No. of Data Rows : 8029

  Measurements for Transient Analysis


Error: measure  t_handoff  when(WHEN) : out of interval
 .meas tran t_handoff when v(ea_en)=2.5 rise=1 failed!

pvdd_final          =  4.978794e+00

Warning from checkvalid: vector t_handoff is not available or has zero length.

Error: measure  pvdd_at_start  find(AT) : out of interval

Error: measure  pvdd_at_end  find(AT) : out of interval
Warning from checkvalid: vector pvdd_at_start is not available or has zero length.
Error: RHS "(pvdd_max_ho - pvdd_at_start) * 1000" invalid
Warning from checkvalid: vector pvdd_at_start is not available or has zero length.
Error: RHS "(pvdd_at_start - pvdd_min_ho) * 1000" invalid
Error: &glitch_high_mV: no such variable.
Error: &glitch_low_mV: no such variable.
Error: &pvdd_final: no such variable.
Warning from checkvalid: vector pvdd_final is not available or has zero length.
Using SPARSE 1.3 as Direct Linear Solver
ea_en_transition_time_s: 999
 meas tran pvdd_at_start find v(pvdd) at=999 failed!

 meas tran pvdd_at_end find v(pvdd) at=999 failed!

pvdd_min_ho         =  0.000000e+00 at=  0.000000e+00
pvdd_max_ho         =  0.000000e+00 at=  0.000000e+00
handoff_glitch_high_mV:
handoff_glitch_low_mV:
handoff_glitch_pp_mV: 0
handoff_clean: 1
pvdd_final_V:
no_latch_stuck: 0
Doing analysis at TEMP = 27.000000 and TNOM = 27.000000

Using transient initial conditions
 Reference value :  1.13116e-05 Reference value :  3.35116e-05 Reference value :  5.70116e-05 Reference value :  8.05116e-05 Reference value :  1.04012e-04 Reference value :  1.27612e-04 Reference value :  1.53212e-04 Reference value :  1.81012e-04 Reference value :  2.08812e-04 Reference value :  2.36612e-04 Reference value :  2.64412e-04 Reference value :  2.92212e-04 Reference value :  3.20112e-04 Reference value :  3.48012e-04 Reference value :  3.75012e-04 Reference value :  4.02812e-04 Reference value :  4.30612e-04 Reference value :  4.58312e-04 Reference value :  4.86012e-04 Reference value :  5.13712e-04 Reference value :  5.41412e-04 Reference value :  5.69212e-04 Reference value :  5.96112e-04 Reference value :  6.23512e-04 Reference value :  6.51312e-04 Reference value :  6.79112e-04 Reference value :  7.06912e-04 Reference value :  7.34512e-04 Reference value :  7.62412e-04 Reference value :  7.90212e-04
No. of Data Rows : 8029

  Measurements for Transient Analysis


Error: measure  t_handoff  when(WHEN) : out of interval
 .meas tran t_handoff when v(ea_en)=2.5 rise=1 failed!

pvdd_final          =  4.978794e+00


Total analysis time (seconds) = 56.138

Total elapsed time (seconds) = 57.226 

Total DRAM available = 3834.176 MB.
DRAM currently available =  611.816 MB.
Maximum ngspice program size =   62.715 MB.
Current ngspice program size =   46.039 MB.

Shared ngspice pages =   10.684 MB.
Text (code) pages =    6.156 MB.
Stack = 0 bytes.
Library pages =   43.469 MB.


--- Running tb_su_50mA.spice ---
Using SPARSE 1.3 as Direct Linear Solver

Note: No compatibility mode selected!


Circuit: * tb_su_50ma.spice — startup with 50ma load, tt 27c, 1v/us

Doing analysis at TEMP = 27.000000 and TNOM = 27.000000

Using transient initial conditions
 Reference value :  1.00000e-09 Reference value :  2.28500e-05 Reference value :  5.07500e-05 Reference value :  7.86500e-05 Reference value :  1.05350e-04 Reference value :  1.32350e-04 Reference value :  1.59850e-04 Reference value :  1.87650e-04 Reference value :  2.15450e-04 Reference value :  2.43250e-04 Reference value :  2.71050e-04 Reference value :  2.98850e-04 Reference value :  3.25150e-04 Reference value :  3.52750e-04 Reference value :  3.80450e-04 Reference value :  4.08250e-04 Reference value :  4.36050e-04 Reference value :  4.63750e-04 Reference value :  4.91350e-04 Reference value :  5.19150e-04 Reference value :  5.45950e-04 Reference value :  5.73750e-04 Reference value :  6.01450e-04 Reference value :  6.29150e-04 Reference value :  6.56850e-04 Reference value :  6.84550e-04 Reference value :  7.05850e-04 Reference value :  7.09450e-04 Reference value :  7.23550e-04 Reference value :  7.35150e-04 Reference value :  7.38350e-04 Reference value :  7.41550e-04 Reference value :  7.44850e-04 Reference value :  7.48050e-04 Reference value :  7.51250e-04 Reference value :  7.63950e-04 Reference value :  7.90950e-04
No. of Data Rows : 8020

  Measurements for Transient Analysis


Error: measure  t_pvdd_settle  when(WHEN) : out of interval
 .meas tran t_pvdd_settle when v(pvdd)=4.95 rise=1 failed!

t_bvdd_56           =   5.60000e-06
pvdd_max            =  3.489362e+00 at=  9.850000e-06

Warning from checkvalid: vector t_pvdd_settle is not available or has zero length.
Using SPARSE 1.3 as Direct Linear Solver
startup_time_50mA_us: 999
pvdd_overshoot_mV: 0
pvdd_peak_V: 3.48936
pvdd_final          =  3.396068e+00
pvdd_final_V: 3.39607
load_current_mA: 33.9607
no_latch_stuck: 0
Doing analysis at TEMP = 27.000000 and TNOM = 27.000000

Using transient initial conditions
 Reference value :  9.65000e-06 Reference value :  3.63500e-05 Reference value :  6.44500e-05 Reference value :  9.23500e-05 Reference value :  1.20350e-04 Reference value :  1.48450e-04 Reference value :  1.74650e-04 Reference value :  2.02750e-04 Reference value :  2.30850e-04 Reference value :  2.59050e-04 Reference value :  2.87250e-04 Reference value :  3.15450e-04 Reference value :  3.43550e-04 Reference value :  3.71650e-04 Reference value :  3.98750e-04 Reference value :  4.26850e-04 Reference value :  4.54950e-04 Reference value :  4.83050e-04 Reference value :  5.11250e-04 Reference value :  5.39450e-04 Reference value :  5.67650e-04 Reference value :  5.95850e-04 Reference value :  6.23050e-04 Reference value :  6.51150e-04 Reference value :  6.79250e-04 Reference value :  7.07350e-04 Reference value :  7.35450e-04 Reference value :  7.63650e-04 Reference value :  7.91750e-04
No. of Data Rows : 8020

  Measurements for Transient Analysis


Error: measure  t_pvdd_settle  when(WHEN) : out of interval
 .meas tran t_pvdd_settle when v(pvdd)=4.95 rise=1 failed!

t_bvdd_56           =   5.60000e-06
pvdd_max            =  3.489362e+00 at=  9.850000e-06


Total analysis time (seconds) = 9.294

Total elapsed time (seconds) = 9.872 

Total DRAM available = 3834.176 MB.
DRAM currently available =  582.273 MB.
Maximum ngspice program size =   62.707 MB.
Current ngspice program size =   46.043 MB.

Shared ngspice pages =   10.695 MB.
Text (code) pages =    6.156 MB.
Stack = 0 bytes.
Library pages =   43.461 MB.


--- Running tb_su_fast_ramp.spice ---
Using SPARSE 1.3 as Direct Linear Solver

Note: No compatibility mode selected!


Circuit: * tb_su_fast_ramp.spice — fast bvdd ramp 12v/us, tt 27c, no load

Doing analysis at TEMP = 27.000000 and TNOM = 27.000000

Using transient initial conditions
 Reference value :  1.00000e-09 Reference value :  3.42645e-06 Reference value :  6.02645e-06 Reference value :  8.12645e-06 Reference value :  1.11264e-05 Reference value :  1.38264e-05 Reference value :  1.64264e-05 Reference value :  1.86264e-05 Reference value :  2.08264e-05 Reference value :  2.30264e-05 Reference value :  2.51264e-05 Reference value :  2.72264e-05 Reference value :  2.96264e-05 Reference value :  3.18264e-05 Reference value :  3.40264e-05 Reference value :  3.61264e-05 Reference value :  3.83264e-05 Reference value :  4.05264e-05 Reference value :  4.27264e-05 Reference value :  4.49264e-05 Reference value :  4.70264e-05 Reference value :  4.91264e-05 Reference value :  5.12264e-05 Reference value :  5.33264e-05 Reference value :  5.55264e-05 Reference value :  5.76264e-05 Reference value :  5.97264e-05 Reference value :  6.19264e-05 Reference value :  6.41264e-05 Reference value :  6.63264e-05 Reference value :  6.85264e-05 Reference value :  7.07264e-05 Reference value :  7.28264e-05 Reference value :  7.49264e-05 Reference value :  7.70264e-05 Reference value :  7.91264e-05 Reference value :  8.13264e-05 Reference value :  8.35264e-05 Reference value :  8.56264e-05 Reference value :  8.77264e-05 Reference value :  8.99264e-05 Reference value :  9.21264e-05 Reference value :  9.43264e-05 Reference value :  9.65264e-05 Reference value :  9.86264e-05 Reference value :  1.00826e-04 Reference value :  1.02926e-04 Reference value :  1.05126e-04 Reference value :  1.07226e-04 Reference value :  1.09326e-04 Reference value :  1.11526e-04 Reference value :  1.13626e-04 Reference value :  1.15826e-04 Reference value :  1.17926e-04 Reference value :  1.20126e-04 Reference value :  1.22226e-04 Reference value :  1.24426e-04 Reference value :  1.26526e-04 Reference value :  1.28826e-04 Reference value :  1.31426e-04 Reference value :  1.34026e-04 Reference value :  1.37426e-04 Reference value :  1.46626e-04 Reference value :  1.55926e-04 Reference value :  1.66926e-04 Reference value :  1.69426e-04 Reference value :  1.72026e-04 Reference value :  1.74626e-04 Reference value :  1.77226e-04 Reference value :  1.79826e-04 Reference value :  1.82726e-04 Reference value :  1.85926e-04 Reference value :  1.89126e-04 Reference value :  1.92326e-04 Reference value :  1.95526e-04 Reference value :  1.98726e-04 Reference value :  2.01926e-04 Reference value :  2.05126e-04 Reference value :  2.08326e-04 Reference value :  2.11526e-04 Reference value :  2.14726e-04 Reference value :  2.17926e-04 Reference value :  2.21126e-04 Reference value :  2.24326e-04 Reference value :  2.27526e-04 Reference value :  2.30726e-04 Reference value :  2.33926e-04 Reference value :  2.37126e-04 Reference value :  2.41326e-04 Reference value :  2.45626e-04 Reference value :  2.50226e-04 Reference value :  2.65426e-04 Reference value :  2.74326e-04 Reference value :  2.77526e-04 Reference value :  2.80726e-04 Reference value :  2.83926e-04 Reference value :  2.87126e-04 Reference value :  2.90326e-04 Reference value :  2.93526e-04 Reference value :  2.96726e-04 Reference value :  2.99926e-04 Reference value :  3.03126e-04 Reference value :  3.06326e-04 Reference value :  3.09526e-04 Reference value :  3.12826e-04 Reference value :  3.16026e-04 Reference value :  3.19226e-04 Reference value :  3.22426e-04 Reference value :  3.25626e-04 Reference value :  3.28826e-04 Reference value :  3.32026e-04 Reference value :  3.35226e-04 Reference value :  3.38426e-04 Reference value :  3.41626e-04 Reference value :  3.44826e-04 Reference value :  3.48026e-04 Reference value :  3.51226e-04 Reference value :  3.54426e-04 Reference value :  3.57626e-04 Reference value :  3.60826e-04 Reference value :  3.64026e-04 Reference value :  3.67226e-04 Reference value :  3.70426e-04 Reference value :  3.73726e-04 Reference value :  3.76926e-04 Reference value :  3.80126e-04 Reference value :  3.83326e-04 Reference value :  3.86526e-04 Reference value :  3.89726e-04 Reference value :  3.92926e-04 Reference value :  3.96126e-04 Reference value :  3.99326e-04 Reference value :  4.02526e-04 Reference value :  4.05826e-04 Reference value :  4.09026e-04 Reference value :  4.12226e-04 Reference value :  4.15426e-04 Reference value :  4.18626e-04 Reference value :  4.21826e-04 Reference value :  4.25026e-04 Reference value :  4.28226e-04 Reference value :  4.31426e-04 Reference value :  4.34626e-04 Reference value :  4.37826e-04 Reference value :  4.41026e-04 Reference value :  4.44226e-04 Reference value :  4.47426e-04 Reference value :  4.50626e-04 Reference value :  4.53826e-04 Reference value :  4.57026e-04 Reference value :  4.60126e-04 Reference value :  4.63326e-04 Reference value :  4.66526e-04 Reference value :  4.69726e-04 Reference value :  4.72926e-04 Reference value :  4.76126e-04 Reference value :  4.79326e-04 Reference value :  4.82526e-04 Reference value :  4.85726e-04 Reference value :  4.88926e-04 Reference value :  4.92126e-04 Reference value :  4.95326e-04 Reference value :  4.98526e-04 Reference value :  5.01726e-04 Reference value :  5.04926e-04 Reference value :  5.08126e-04 Reference value :  5.11326e-04 Reference value :  5.14526e-04 Reference value :  5.17726e-04 Reference value :  5.20926e-04 Reference value :  5.24126e-04 Reference value :  5.27326e-04 Reference value :  5.30526e-04 Reference value :  5.33726e-04 Reference value :  5.36926e-04 Reference value :  5.40126e-04 Reference value :  5.43326e-04 Reference value :  5.46526e-04 Reference value :  5.49726e-04 Reference value :  5.52926e-04 Reference value :  5.56126e-04 Reference value :  5.59326e-04 Reference value :  5.62526e-04 Reference value :  5.65726e-04 Reference value :  5.68926e-04 Reference value :  5.72126e-04 Reference value :  5.75326e-04 Reference value :  5.78526e-04 Reference value :  5.81726e-04 Reference value :  5.84926e-04 Reference value :  5.88126e-04 Reference value :  5.91326e-04 Reference value :  5.94526e-04 Reference value :  5.97726e-04 Reference value :  6.00926e-04 Reference value :  6.04126e-04 Reference value :  6.07326e-04 Reference value :  6.10526e-04 Reference value :  6.13726e-04 Reference value :  6.16926e-04 Reference value :  6.20226e-04 Reference value :  6.23426e-04 Reference value :  6.26626e-04 Reference value :  6.29826e-04 Reference value :  6.33026e-04 Reference value :  6.36126e-04 Reference value :  6.39326e-04 Reference value :  6.42526e-04 Reference value :  6.45826e-04 Reference value :  6.49026e-04 Reference value :  6.52226e-04 Reference value :  6.55426e-04 Reference value :  6.58626e-04 Reference value :  6.61826e-04 Reference value :  6.65026e-04 Reference value :  6.68226e-04 Reference value :  6.71926e-04 Reference value :  6.82226e-04 Reference value :  6.91326e-04 Reference value :  6.95126e-04 Reference value :  7.10526e-04 Reference value :  7.25326e-04 Reference value :  7.36026e-04 Reference value :  7.50726e-04 Reference value :  7.54126e-04 Reference value :  7.57326e-04 Reference value :  7.60526e-04 Reference value :  7.63726e-04 Reference value :  7.66926e-04 Reference value :  7.70126e-04 Reference value :  7.75626e-04 Reference value :  7.96526e-04
No. of Data Rows : 8067

  Measurements for Transient Analysis

t_bvdd_56           =   4.66667e-07
t_pvdd_settle       =   1.34529e-06
pvdd_max            =  6.837660e+00 at=  2.226448e-06

Warning from checkvalid: vector t_pvdd_settle is not available or has zero length.
Using SPARSE 1.3 as Direct Linear Solver
startup_time_fast_ramp_us: 999
pvdd_overshoot_mV: 1837.66
pvdd_peak_V: 6.83766
pvdd_final          =  4.998345e+00
pvdd_final_V: 4.99834
works_fast_ramp: 0
no_latch_stuck: 1
Doing analysis at TEMP = 27.000000 and TNOM = 27.000000

Using transient initial conditions
 Reference value :  1.10239e-08 Reference value :  1.24970e-07 Reference value :  5.97111e-07 Reference value :  8.65589e-07 Reference value :  9.59043e-07 Reference value :  1.30067e-06 Reference value :  1.54877e-06 Reference value :  3.62645e-06 Reference value :  5.72645e-06 Reference value :  7.92645e-06 Reference value :  1.00264e-05 Reference value :  1.22264e-05 Reference value :  1.43264e-05 Reference value :  1.65264e-05 Reference value :  1.96264e-05 Reference value :  2.18264e-05 Reference value :  2.40264e-05 Reference value :  2.61264e-05 Reference value :  2.82264e-05 Reference value :  3.04264e-05 Reference value :  3.26264e-05 Reference value :  3.47264e-05 Reference value :  3.68264e-05 Reference value :  3.90264e-05 Reference value :  4.12264e-05 Reference value :  4.33264e-05 Reference value :  4.54264e-05 Reference value :  4.76264e-05 Reference value :  4.97264e-05 Reference value :  5.18264e-05 Reference value :  5.40264e-05 Reference value :  5.62264e-05 Reference value :  5.83264e-05 Reference value :  6.05264e-05 Reference value :  6.26264e-05 Reference value :  6.48264e-05 Reference value :  6.69264e-05 Reference value :  6.90264e-05 Reference value :  7.12264e-05 Reference value :  7.34264e-05 Reference value :  7.55264e-05 Reference value :  7.76264e-05 Reference value :  7.98264e-05 Reference value :  8.22264e-05 Reference value :  8.43264e-05 Reference value :  8.65264e-05 Reference value :  8.86264e-05 Reference value :  9.20264e-05 Reference value :  1.01526e-04 Reference value :  1.11926e-04 Reference value :  1.20126e-04 Reference value :  1.22226e-04 Reference value :  1.24326e-04 Reference value :  1.26526e-04 Reference value :  1.28826e-04 Reference value :  1.32126e-04 Reference value :  1.34726e-04 Reference value :  1.37326e-04 Reference value :  1.41426e-04 Reference value :  1.47326e-04 Reference value :  1.49926e-04 Reference value :  1.57226e-04 Reference value :  1.69826e-04 Reference value :  1.82626e-04 Reference value :  1.96926e-04 Reference value :  2.07526e-04 Reference value :  2.10726e-04 Reference value :  2.13926e-04 Reference value :  2.17126e-04 Reference value :  2.23726e-04 Reference value :  2.33026e-04 Reference value :  2.40526e-04 Reference value :  2.44026e-04 Reference value :  2.47626e-04 Reference value :  2.50826e-04 Reference value :  2.54026e-04 Reference value :  2.57226e-04 Reference value :  2.60426e-04 Reference value :  2.63626e-04 Reference value :  2.66826e-04 Reference value :  2.70026e-04 Reference value :  2.73226e-04 Reference value :  2.76526e-04 Reference value :  2.79726e-04 Reference value :  2.82926e-04 Reference value :  2.86126e-04 Reference value :  2.89326e-04 Reference value :  2.92526e-04 Reference value :  2.95726e-04 Reference value :  2.98926e-04 Reference value :  3.02126e-04 Reference value :  3.05326e-04 Reference value :  3.08526e-04 Reference value :  3.11726e-04 Reference value :  3.14926e-04 Reference value :  3.18126e-04 Reference value :  3.21326e-04 Reference value :  3.24526e-04 Reference value :  3.27726e-04 Reference value :  3.30926e-04 Reference value :  3.34126e-04 Reference value :  3.37426e-04 Reference value :  3.40626e-04 Reference value :  3.43826e-04 Reference value :  3.47126e-04 Reference value :  3.50326e-04 Reference value :  3.53526e-04 Reference value :  3.56826e-04 Reference value :  3.60126e-04 Reference value :  3.63326e-04 Reference value :  3.66526e-04 Reference value :  3.69726e-04 Reference value :  3.73026e-04 Reference value :  3.76226e-04 Reference value :  3.79426e-04 Reference value :  3.82626e-04 Reference value :  3.85926e-04 Reference value :  3.89126e-04 Reference value :  3.92326e-04 Reference value :  3.95526e-04 Reference value :  3.98826e-04 Reference value :  4.02026e-04 Reference value :  4.05226e-04 Reference value :  4.08426e-04 Reference value :  4.11626e-04 Reference value :  4.14826e-04 Reference value :  4.18126e-04 Reference value :  4.21326e-04 Reference value :  4.24526e-04 Reference value :  4.27726e-04 Reference value :  4.30926e-04 Reference value :  4.34526e-04 Reference value :  4.37826e-04 Reference value :  4.41026e-04 Reference value :  4.44326e-04 Reference value :  4.47526e-04 Reference value :  4.50826e-04 Reference value :  4.54026e-04 Reference value :  4.57226e-04 Reference value :  4.60426e-04 Reference value :  4.63626e-04 Reference value :  4.66826e-04 Reference value :  4.70026e-04 Reference value :  4.73226e-04 Reference value :  4.76426e-04 Reference value :  4.79626e-04 Reference value :  4.82826e-04 Reference value :  4.86026e-04 Reference value :  4.89226e-04 Reference value :  4.92426e-04 Reference value :  4.95626e-04 Reference value :  4.98826e-04 Reference value :  5.02126e-04 Reference value :  5.05326e-04 Reference value :  5.08526e-04 Reference value :  5.11826e-04 Reference value :  5.15026e-04 Reference value :  5.18226e-04 Reference value :  5.21426e-04 Reference value :  5.24626e-04 Reference value :  5.27826e-04 Reference value :  5.31026e-04 Reference value :  5.34626e-04 Reference value :  5.42326e-04 Reference value :  5.49026e-04 Reference value :  5.58326e-04 Reference value :  5.64626e-04 Reference value :  5.68826e-04 Reference value :  5.72026e-04 Reference value :  5.75226e-04 Reference value :  5.79326e-04 Reference value :  5.95726e-04 Reference value :  6.04926e-04 Reference value :  6.13026e-04 Reference value :  6.16226e-04 Reference value :  6.19426e-04 Reference value :  6.22626e-04 Reference value :  6.25926e-04 Reference value :  6.29126e-04 Reference value :  6.32326e-04 Reference value :  6.35526e-04 Reference value :  6.38726e-04 Reference value :  6.41926e-04 Reference value :  6.45126e-04 Reference value :  6.48326e-04 Reference value :  6.53326e-04 Reference value :  6.58526e-04 Reference value :  6.62326e-04 Reference value :  6.67226e-04 Reference value :  6.70726e-04 Reference value :  6.74226e-04 Reference value :  6.77426e-04 Reference value :  6.80626e-04 Reference value :  6.88326e-04 Reference value :  7.03826e-04 Reference value :  7.19126e-04 Reference value :  7.25126e-04 Reference value :  7.28326e-04 Reference value :  7.31526e-04 Reference value :  7.34726e-04 Reference value :  7.37926e-04 Reference value :  7.41126e-04 Reference value :  7.44326e-04 Reference value :  7.47526e-04 Reference value :  7.50726e-04 Reference value :  7.53926e-04 Reference value :  7.57126e-04 Reference value :  7.60326e-04 Reference value :  7.63526e-04 Reference value :  7.66726e-04 Reference value :  7.69926e-04 Reference value :  7.73126e-04 Reference value :  7.76326e-04 Reference value :  7.79526e-04 Reference value :  7.82726e-04 Reference value :  7.85926e-04 Reference value :  7.89126e-04 Reference value :  7.92326e-04 Reference value :  7.95526e-04 Reference value :  7.98726e-04
No. of Data Rows : 8067

  Measurements for Transient Analysis

t_bvdd_56           =   4.66667e-07
t_pvdd_settle       =   1.34529e-06
pvdd_max            =  6.837660e+00 at=  2.226448e-06


Total analysis time (seconds) = 117.651

Total elapsed time (seconds) = 118.272 

Total DRAM available = 3834.176 MB.
DRAM currently available =  588.582 MB.
Maximum ngspice program size =   62.711 MB.
Current ngspice program size =   46.074 MB.

Shared ngspice pages =   10.723 MB.
Text (code) pages =    6.156 MB.
Stack = 0 bytes.
Library pages =   43.465 MB.


--- Running tb_su_slow_ramp.spice ---
Using SPARSE 1.3 as Direct Linear Solver

Note: No compatibility mode selected!


Circuit: * tb_su_slow_ramp.spice — slow bvdd ramp 0.1v/us, tt 27c, no load

Doing analysis at TEMP = 27.000000 and TNOM = 27.000000

Using transient initial conditions
 Reference value :  1.00000e-09 Reference value :  9.53870e-07 Reference value :  4.15387e-06 Reference value :  7.05387e-06 Reference value :  9.35387e-06 Reference value :  1.23539e-05 Reference value :  1.55539e-05 Reference value :  1.87539e-05 Reference value :  2.19539e-05 Reference value :  2.51539e-05 Reference value :  2.82539e-05 Reference value :  3.14539e-05 Reference value :  3.46539e-05 Reference value :  3.78539e-05 Reference value :  4.10539e-05 Reference value :  4.42539e-05 Reference value :  4.74539e-05 Reference value :  5.06539e-05 Reference value :  5.38539e-05 Reference value :  5.70539e-05 Reference value :  6.02539e-05 Reference value :  6.34539e-05 Reference value :  6.66539e-05 Reference value :  6.98539e-05 Reference value :  7.30539e-05 Reference value :  7.62539e-05 Reference value :  7.94539e-05 Reference value :  8.26539e-05 Reference value :  8.58539e-05 Reference value :  8.90539e-05 Reference value :  9.22539e-05 Reference value :  9.54539e-05 Reference value :  9.86539e-05 Reference value :  1.01854e-04 Reference value :  1.05000e-04 Reference value :  1.08050e-04 Reference value :  1.11250e-04 Reference value :  1.14450e-04 Reference value :  1.17650e-04 Reference value :  1.20850e-04 Reference value :  1.24050e-04 Reference value :  1.27250e-04 Reference value :  1.30450e-04 Reference value :  1.33650e-04 Reference value :  1.36850e-04 Reference value :  1.40050e-04 Reference value :  1.43250e-04 Reference value :  1.46450e-04 Reference value :  1.49650e-04 Reference value :  1.52850e-04 Reference value :  1.56050e-04 Reference value :  1.59250e-04 Reference value :  1.62450e-04 Reference value :  1.65650e-04 Reference value :  1.68850e-04 Reference value :  1.72050e-04 Reference value :  1.75250e-04 Reference value :  1.78450e-04 Reference value :  1.81650e-04 Reference value :  1.84850e-04 Reference value :  1.88050e-04 Reference value :  1.91250e-04 Reference value :  1.94550e-04 Reference value :  1.97750e-04 Reference value :  2.00950e-04 Reference value :  2.04150e-04 Reference value :  2.07350e-04 Reference value :  2.10550e-04 Reference value :  2.13750e-04 Reference value :  2.16950e-04 Reference value :  2.20250e-04 Reference value :  2.23450e-04 Reference value :  2.26650e-04 Reference value :  2.29850e-04 Reference value :  2.33250e-04 Reference value :  2.45550e-04 Reference value :  2.59750e-04 Reference value :  2.72250e-04 Reference value :  2.77850e-04 Reference value :  2.82150e-04 Reference value :  2.91550e-04 Reference value :  3.04350e-04 Reference value :  3.09950e-04 Reference value :  3.20350e-04 Reference value :  3.31050e-04 Reference value :  3.46950e-04 Reference value :  3.50550e-04 Reference value :  3.53750e-04 Reference value :  3.56950e-04 Reference value :  3.60250e-04 Reference value :  3.63450e-04 Reference value :  3.66650e-04 Reference value :  3.69850e-04 Reference value :  3.73050e-04 Reference value :  3.76350e-04 Reference value :  3.79550e-04 Reference value :  3.82750e-04 Reference value :  3.85950e-04 Reference value :  3.89150e-04 Reference value :  3.92350e-04 Reference value :  3.95550e-04 Reference value :  3.98850e-04 Reference value :  4.02050e-04 Reference value :  4.05250e-04 Reference value :  4.08450e-04 Reference value :  4.11650e-04 Reference value :  4.14850e-04 Reference value :  4.18050e-04 Reference value :  4.21250e-04 Reference value :  4.24450e-04 Reference value :  4.27650e-04 Reference value :  4.30850e-04 Reference value :  4.34050e-04 Reference value :  4.37250e-04 Reference value :  4.40550e-04 Reference value :  4.43750e-04 Reference value :  4.46950e-04 Reference value :  4.50150e-04 Reference value :  4.53350e-04 Reference value :  4.56550e-04 Reference value :  4.59850e-04 Reference value :  4.67650e-04 Reference value :  4.75850e-04 Reference value :  4.89550e-04 Reference value :  5.03150e-04 Reference value :  5.06350e-04 Reference value :  5.09550e-04 Reference value :  5.12750e-04 Reference value :  5.15950e-04 Reference value :  5.19150e-04 Reference value :  5.22350e-04 Reference value :  5.25550e-04 Reference value :  5.28750e-04 Reference value :  5.31950e-04 Reference value :  5.35150e-04 Reference value :  5.38350e-04 Reference value :  5.41950e-04 Reference value :  5.57450e-04 Reference value :  5.71250e-04 Reference value :  5.81850e-04 Reference value :  5.91850e-04 Reference value :  6.04650e-04 Reference value :  6.17650e-04 Reference value :  6.29250e-04 Reference value :  6.35550e-04 Reference value :  6.43650e-04 Reference value :  6.47350e-04 Reference value :  6.51050e-04 Reference value :  6.58550e-04 Reference value :  6.61750e-04 Reference value :  6.64950e-04 Reference value :  6.68150e-04 Reference value :  6.71350e-04 Reference value :  6.74550e-04 Reference value :  6.77750e-04 Reference value :  6.80950e-04 Reference value :  6.84850e-04 Reference value :  6.93550e-04 Reference value :  7.06750e-04 Reference value :  7.12850e-04 Reference value :  7.23950e-04 Reference value :  7.38450e-04 Reference value :  7.52550e-04 Reference value :  7.59850e-04 Reference value :  7.63650e-04 Reference value :  7.66850e-04 Reference value :  7.70150e-04 Reference value :  7.73350e-04 Reference value :  7.76550e-04 Reference value :  7.79750e-04 Reference value :  7.82950e-04 Reference value :  7.86150e-04 Reference value :  7.89350e-04 Reference value :  7.92550e-04 Reference value :  7.95750e-04 Reference value :  8.02550e-04 Reference value :  8.06150e-04 Reference value :  8.18150e-04 Reference value :  8.27150e-04 Reference value :  8.30350e-04 Reference value :  8.33550e-04 Reference value :  8.36750e-04 Reference value :  8.39950e-04 Reference value :  8.43150e-04 Reference value :  8.46350e-04 Reference value :  8.49550e-04 Reference value :  8.53150e-04 Reference value :  8.56350e-04 Reference value :  8.59550e-04 Reference value :  8.62750e-04 Reference value :  8.65950e-04 Reference value :  8.69150e-04 Reference value :  8.72350e-04 Reference value :  8.75650e-04 Reference value :  8.78850e-04 Reference value :  8.82050e-04 Reference value :  8.85250e-04 Reference value :  8.88450e-04 Reference value :  8.97750e-04 Reference value :  9.10450e-04 Reference value :  9.25250e-04 Reference value :  9.33550e-04 Reference value :  9.36750e-04 Reference value :  9.39950e-04 Reference value :  9.43150e-04 Reference value :  9.46450e-04 Reference value :  9.49650e-04 Reference value :  9.52850e-04 Reference value :  9.56050e-04 Reference value :  9.59250e-04 Reference value :  9.66650e-04 Reference value :  9.70250e-04 Reference value :  9.80450e-04 Reference value :  9.85550e-04 Reference value :  9.88750e-04 Reference value :  9.91950e-04 Reference value :  9.95150e-04 Reference value :  9.98350e-04
No. of Data Rows : 10020

  Measurements for Transient Analysis


Error: measure  t_pvdd_settle  when(WHEN) : out of interval
 .meas tran t_pvdd_settle when v(pvdd)=4.95 rise=1 failed!

t_bvdd_56           =   5.60000e-05
pvdd_max            =  1.255835e+00 at=  4.110500e-04

Warning from checkvalid: vector t_pvdd_settle is not available or has zero length.
Using SPARSE 1.3 as Direct Linear Solver
startup_time_slow_ramp_us: 999
pvdd_overshoot_mV: 0
pvdd_peak_V: 1.25583
pvdd_final          =  1.179828e+00
pvdd_final_V: 1.17983
pvdd_regulates_slow_ramp: 0
no_latch_stuck: 0
Doing analysis at TEMP = 27.000000 and TNOM = 27.000000

Using transient initial conditions
 Reference value :  1.02795e-09 Reference value :  1.35387e-06 Reference value :  4.55387e-06 Reference value :  7.45387e-06 Reference value :  9.55387e-06 Reference value :  1.27539e-05 Reference value :  1.59539e-05 Reference value :  1.91539e-05 Reference value :  2.23539e-05 Reference value :  2.55539e-05 Reference value :  2.87539e-05 Reference value :  3.19539e-05 Reference value :  3.51539e-05 Reference value :  3.83539e-05 Reference value :  4.15539e-05 Reference value :  4.47539e-05 Reference value :  4.79539e-05 Reference value :  5.11539e-05 Reference value :  5.43539e-05 Reference value :  5.75539e-05 Reference value :  6.07539e-05 Reference value :  6.39539e-05 Reference value :  6.71539e-05 Reference value :  7.03539e-05 Reference value :  7.35539e-05 Reference value :  7.67539e-05 Reference value :  8.00539e-05 Reference value :  8.32539e-05 Reference value :  8.64539e-05 Reference value :  8.96539e-05 Reference value :  9.28539e-05 Reference value :  9.60539e-05 Reference value :  9.92539e-05 Reference value :  1.02454e-04 Reference value :  1.05350e-04 Reference value :  1.08550e-04 Reference value :  1.11750e-04 Reference value :  1.14950e-04 Reference value :  1.18150e-04 Reference value :  1.21350e-04 Reference value :  1.24550e-04 Reference value :  1.27750e-04 Reference value :  1.31250e-04 Reference value :  1.42950e-04 Reference value :  1.57650e-04 Reference value :  1.69750e-04 Reference value :  1.73550e-04 Reference value :  1.76750e-04 Reference value :  1.79950e-04 Reference value :  1.83150e-04 Reference value :  1.86350e-04 Reference value :  1.89550e-04 Reference value :  1.92750e-04 Reference value :  1.95950e-04 Reference value :  1.99150e-04 Reference value :  2.02350e-04 Reference value :  2.05550e-04 Reference value :  2.08750e-04 Reference value :  2.11950e-04 Reference value :  2.15150e-04 Reference value :  2.18350e-04 Reference value :  2.21550e-04 Reference value :  2.29550e-04 Reference value :  2.37450e-04 Reference value :  2.47350e-04 Reference value :  2.57550e-04 Reference value :  2.60750e-04 Reference value :  2.63950e-04 Reference value :  2.67150e-04 Reference value :  2.70350e-04 Reference value :  2.73550e-04 Reference value :  2.76750e-04 Reference value :  2.79950e-04 Reference value :  2.83150e-04 Reference value :  2.86350e-04 Reference value :  2.89550e-04 Reference value :  2.92750e-04 Reference value :  2.95950e-04 Reference value :  2.99150e-04 Reference value :  3.02350e-04 Reference value :  3.05550e-04 Reference value :  3.08750e-04 Reference value :  3.11950e-04 Reference value :  3.15150e-04 Reference value :  3.18350e-04 Reference value :  3.21550e-04 Reference value :  3.24750e-04 Reference value :  3.27950e-04 Reference value :  3.31150e-04 Reference value :  3.34350e-04 Reference value :  3.37550e-04 Reference value :  3.40750e-04 Reference value :  3.43950e-04 Reference value :  3.47150e-04 Reference value :  3.50350e-04 Reference value :  3.53550e-04 Reference value :  3.56750e-04 Reference value :  3.59950e-04 Reference value :  3.63150e-04 Reference value :  3.66350e-04 Reference value :  3.69550e-04 Reference value :  3.73450e-04 Reference value :  3.84950e-04 Reference value :  3.90750e-04 Reference value :  3.99050e-04 Reference value :  4.03450e-04 Reference value :  4.06650e-04 Reference value :  4.09850e-04 Reference value :  4.13050e-04 Reference value :  4.16250e-04 Reference value :  4.19450e-04 Reference value :  4.22650e-04 Reference value :  4.25850e-04 Reference value :  4.29050e-04 Reference value :  4.32250e-04 Reference value :  4.35450e-04 Reference value :  4.38650e-04 Reference value :  4.43350e-04 Reference value :  4.46550e-04 Reference value :  4.54450e-04 Reference value :  4.58050e-04 Reference value :  4.63750e-04 Reference value :  4.67950e-04 Reference value :  4.71150e-04 Reference value :  4.74350e-04 Reference value :  4.77550e-04 Reference value :  4.80750e-04 Reference value :  4.83950e-04 Reference value :  4.87150e-04 Reference value :  4.90350e-04 Reference value :  4.93550e-04 Reference value :  4.96750e-04 Reference value :  5.06550e-04 Reference value :  5.20250e-04 Reference value :  5.32150e-04 Reference value :  5.43050e-04 Reference value :  5.50950e-04 Reference value :  5.54250e-04 Reference value :  5.65850e-04 Reference value :  5.76350e-04 Reference value :  5.82950e-04 Reference value :  5.97250e-04 Reference value :  6.10750e-04 Reference value :  6.18150e-04 Reference value :  6.21350e-04 Reference value :  6.24550e-04 Reference value :  6.27750e-04 Reference value :  6.30950e-04 Reference value :  6.34150e-04 Reference value :  6.37350e-04 Reference value :  6.40550e-04 Reference value :  6.43750e-04 Reference value :  6.46950e-04 Reference value :  6.50150e-04 Reference value :  6.53350e-04 Reference value :  6.56550e-04 Reference value :  6.59750e-04 Reference value :  6.62950e-04 Reference value :  6.66150e-04 Reference value :  6.69350e-04 Reference value :  6.72550e-04 Reference value :  6.75750e-04 Reference value :  6.79050e-04 Reference value :  6.82250e-04 Reference value :  6.85450e-04 Reference value :  6.88650e-04 Reference value :  6.91850e-04 Reference value :  6.95050e-04 Reference value :  6.98250e-04 Reference value :  7.01450e-04 Reference value :  7.04650e-04 Reference value :  7.07850e-04 Reference value :  7.11050e-04 Reference value :  7.15350e-04 Reference value :  7.19750e-04 Reference value :  7.32950e-04 Reference value :  7.45650e-04 Reference value :  7.54850e-04 Reference value :  7.58150e-04 Reference value :  7.61350e-04 Reference value :  7.64550e-04 Reference value :  7.67750e-04 Reference value :  7.71050e-04 Reference value :  7.74250e-04 Reference value :  7.77450e-04 Reference value :  7.80650e-04 Reference value :  7.83850e-04 Reference value :  7.87050e-04 Reference value :  7.90250e-04 Reference value :  7.93450e-04 Reference value :  7.96650e-04 Reference value :  7.99850e-04 Reference value :  8.03050e-04 Reference value :  8.06250e-04 Reference value :  8.09550e-04 Reference value :  8.12750e-04 Reference value :  8.15950e-04 Reference value :  8.19150e-04 Reference value :  8.22350e-04 Reference value :  8.25550e-04 Reference value :  8.28750e-04 Reference value :  8.31950e-04 Reference value :  8.35150e-04 Reference value :  8.38350e-04 Reference value :  8.41550e-04 Reference value :  8.44750e-04 Reference value :  8.47950e-04 Reference value :  8.51150e-04 Reference value :  8.54350e-04 Reference value :  8.57550e-04 Reference value :  8.60750e-04 Reference value :  8.63950e-04 Reference value :  8.67150e-04 Reference value :  8.70350e-04 Reference value :  8.73550e-04 Reference value :  8.76750e-04 Reference value :  8.79950e-04 Reference value :  8.83150e-04 Reference value :  8.86350e-04 Reference value :  8.89550e-04 Reference value :  8.92750e-04 Reference value :  8.95950e-04 Reference value :  8.99150e-04 Reference value :  9.02350e-04 Reference value :  9.05550e-04 Reference value :  9.08750e-04 Reference value :  9.11950e-04 Reference value :  9.15150e-04 Reference value :  9.18350e-04 Reference value :  9.21550e-04 Reference value :  9.24750e-04 Reference value :  9.27950e-04 Reference value :  9.31150e-04 Reference value :  9.34350e-04 Reference value :  9.37550e-04 Reference value :  9.40750e-04 Reference value :  9.43950e-04 Reference value :  9.47150e-04 Reference value :  9.50350e-04 Reference value :  9.53550e-04 Reference value :  9.56750e-04 Reference value :  9.59950e-04 Reference value :  9.63150e-04 Reference value :  9.66350e-04 Reference value :  9.69550e-04 Reference value :  9.73650e-04 Reference value :  9.77650e-04 Reference value :  9.80950e-04 Reference value :  9.84150e-04 Reference value :  9.87350e-04 Reference value :  9.90550e-04 Reference value :  9.93750e-04 Reference value :  9.96950e-04
No. of Data Rows : 10020

  Measurements for Transient Analysis


Error: measure  t_pvdd_settle  when(WHEN) : out of interval
 .meas tran t_pvdd_settle when v(pvdd)=4.95 rise=1 failed!

t_bvdd_56           =   5.60000e-05
pvdd_max            =  1.255835e+00 at=  4.110500e-04


Total analysis time (seconds) = 121.551

Total elapsed time (seconds) = 122.754 

Total DRAM available = 3834.176 MB.
DRAM currently available =  563.637 MB.
Maximum ngspice program size =   66.328 MB.
Current ngspice program size =   49.676 MB.

Shared ngspice pages =   10.691 MB.
Text (code) pages =    6.156 MB.
Stack = 0 bytes.
Library pages =   47.082 MB.


--- Running tb_su_cold_crank.spice ---
Using SPARSE 1.3 as Direct Linear Solver

Note: No compatibility mode selected!


Circuit: * tb_su_cold_crank.spice — cold crank bvdd profile, tt 27c

Doing analysis at TEMP = 27.000000 and TNOM = 27.000000

Using transient initial conditions
 Reference value :  1.00000e-09 Reference value :  8.53872e-07 Reference value :  2.40972e-06 Reference value :  4.90972e-06 Reference value :  7.80972e-06 Reference value :  1.07500e-05 Reference value :  1.39500e-05 Reference value :  1.71500e-05 Reference value :  2.03500e-05 Reference value :  2.35500e-05 Reference value :  2.67500e-05 Reference value :  2.99500e-05 Reference value :  3.31500e-05 Reference value :  3.63500e-05 Reference value :  3.95500e-05 Reference value :  4.27500e-05 Reference value :  4.59500e-05 Reference value :  4.91500e-05 Reference value :  5.23500e-05 Reference value :  5.55500e-05 Reference value :  5.87500e-05 Reference value :  6.19500e-05 Reference value :  6.51500e-05 Reference value :  6.83500e-05 Reference value :  7.15500e-05 Reference value :  7.47500e-05 Reference value :  7.79500e-05 Reference value :  8.11500e-05 Reference value :  8.43500e-05 Reference value :  8.75500e-05 Reference value :  9.07500e-05 Reference value :  9.39500e-05 Reference value :  9.71500e-05 Reference value :  1.00350e-04 Reference value :  1.03550e-04 Reference value :  1.06750e-04 Reference value :  1.09950e-04 Reference value :  1.13150e-04 Reference value :  1.16350e-04 Reference value :  1.19550e-04 Reference value :  1.22750e-04 Reference value :  1.25950e-04 Reference value :  1.29150e-04 Reference value :  1.32350e-04 Reference value :  1.35550e-04 Reference value :  1.38750e-04 Reference value :  1.42050e-04 Reference value :  1.45250e-04 Reference value :  1.48450e-04 Reference value :  1.51650e-04 Reference value :  1.54850e-04 Reference value :  1.58050e-04 Reference value :  1.61250e-04 Reference value :  1.64450e-04 Reference value :  1.67650e-04 Reference value :  1.70850e-04 Reference value :  1.74050e-04 Reference value :  1.77250e-04 Reference value :  1.80450e-04 Reference value :  1.83650e-04 Reference value :  1.88050e-04 Reference value :  1.99850e-04 Reference value :  2.11650e-04 Reference value :  2.22850e-04 Reference value :  2.27950e-04 Reference value :  2.31150e-04 Reference value :  2.34350e-04 Reference value :  2.37550e-04 Reference value :  2.40750e-04 Reference value :  2.43950e-04 Reference value :  2.47150e-04 Reference value :  2.50350e-04 Reference value :  2.53650e-04 Reference value :  2.56850e-04 Reference value :  2.60050e-04 Reference value :  2.63250e-04 Reference value :  2.66450e-04 Reference value :  2.69650e-04 Reference value :  2.72850e-04 Reference value :  2.76050e-04 Reference value :  2.79250e-04 Reference value :  2.82450e-04 Reference value :  2.85650e-04 Reference value :  2.88850e-04 Reference value :  2.92050e-04 Reference value :  2.95250e-04 Reference value :  2.98450e-04 Reference value :  3.01750e-04 Reference value :  3.04950e-04 Reference value :  3.08150e-04 Reference value :  3.11350e-04 Reference value :  3.14550e-04 Reference value :  3.17750e-04 Reference value :  3.20950e-04 Reference value :  3.24150e-04 Reference value :  3.27550e-04 Reference value :  3.31250e-04 Reference value :  3.38950e-04 Reference value :  3.43050e-04 Reference value :  3.46350e-04 Reference value :  3.49550e-04 Reference value :  3.52750e-04 Reference value :  3.55950e-04 Reference value :  3.59150e-04 Reference value :  3.62350e-04 Reference value :  3.65550e-04 Reference value :  3.68750e-04 Reference value :  3.71950e-04 Reference value :  3.75150e-04 Reference value :  3.78350e-04 Reference value :  3.81550e-04 Reference value :  3.85150e-04 Reference value :  3.88350e-04 Reference value :  3.91550e-04 Reference value :  3.94750e-04 Reference value :  3.97950e-04 Reference value :  4.00709e-04 Reference value :  4.03909e-04 Reference value :  4.07109e-04 Reference value :  4.10070e-04 Reference value :  4.13250e-04 Reference value :  4.16450e-04 Reference value :  4.19650e-04 Reference value :  4.22850e-04 Reference value :  4.26050e-04 Reference value :  4.29250e-04 Reference value :  4.32550e-04 Reference value :  4.35750e-04 Reference value :  4.38950e-04 Reference value :  4.42150e-04 Reference value :  4.45450e-04 Reference value :  4.52450e-04 Reference value :  4.62150e-04 Reference value :  4.73650e-04 Reference value :  4.80050e-04 Reference value :  4.91650e-04 Reference value :  5.04050e-04 Reference value :  5.15850e-04 Reference value :  5.28350e-04 Reference value :  5.36250e-04 Reference value :  5.44950e-04 Reference value :  5.51950e-04 Reference value :  5.57550e-04 Reference value :  5.69550e-04 Reference value :  5.78250e-04 Reference value :  5.87550e-04 Reference value :  5.92650e-04 Reference value :  5.96950e-04 Reference value :  6.01950e-04 Reference value :  6.05150e-04 Reference value :  6.08350e-04 Reference value :  6.11550e-04 Reference value :  6.14750e-04 Reference value :  6.17950e-04 Reference value :  6.21150e-04 Reference value :  6.24350e-04 Reference value :  6.27550e-04 Reference value :  6.30750e-04 Reference value :  6.33950e-04 Reference value :  6.37150e-04 Reference value :  6.40350e-04 Reference value :  6.43550e-04 Reference value :  6.46850e-04 Reference value :  6.50050e-04 Reference value :  6.53250e-04 Reference value :  6.56450e-04 Reference value :  6.59650e-04 Reference value :  6.62850e-04 Reference value :  6.66150e-04 Reference value :  6.69350e-04 Reference value :  6.72550e-04 Reference value :  6.75750e-04 Reference value :  6.78950e-04 Reference value :  6.82150e-04 Reference value :  6.85350e-04 Reference value :  6.88550e-04 Reference value :  6.91750e-04 Reference value :  6.94950e-04 Reference value :  6.98150e-04 Reference value :  7.01350e-04 Reference value :  7.04550e-04 Reference value :  7.07850e-04 Reference value :  7.11050e-04 Reference value :  7.14250e-04 Reference value :  7.17450e-04 Reference value :  7.20550e-04 Reference value :  7.23750e-04 Reference value :  7.26950e-04 Reference value :  7.30150e-04 Reference value :  7.38650e-04 Reference value :  7.51250e-04 Reference value :  7.64450e-04 Reference value :  7.73950e-04 Reference value :  7.83950e-04 Reference value :  7.89450e-04 Reference value :  8.01750e-04 Reference value :  8.07650e-04 Reference value :  8.10850e-04 Reference value :  8.14050e-04 Reference value :  8.17250e-04 Reference value :  8.20450e-04 Reference value :  8.23650e-04 Reference value :  8.26850e-04 Reference value :  8.30050e-04 Reference value :  8.33250e-04 Reference value :  8.36450e-04 Reference value :  8.39650e-04 Reference value :  8.42850e-04 Reference value :  8.46050e-04 Reference value :  8.49250e-04 Reference value :  8.52450e-04 Reference value :  8.55750e-04 Reference value :  8.59150e-04 Reference value :  8.62350e-04 Reference value :  8.65650e-04 Reference value :  8.69250e-04 Reference value :  8.72650e-04 Reference value :  8.75850e-04 Reference value :  8.81950e-04 Reference value :  8.86750e-04 Reference value :  8.94550e-04 Reference value :  9.00350e-04 Reference value :  9.03550e-04 Reference value :  9.06750e-04 Reference value :  9.09950e-04 Reference value :  9.13150e-04 Reference value :  9.16450e-04 Reference value :  9.19650e-04 Reference value :  9.22850e-04 Reference value :  9.26050e-04 Reference value :  9.29250e-04 Reference value :  9.32450e-04 Reference value :  9.35650e-04 Reference value :  9.38950e-04 Reference value :  9.42150e-04 Reference value :  9.45350e-04 Reference value :  9.48550e-04 Reference value :  9.51750e-04 Reference value :  9.54950e-04 Reference value :  9.58150e-04 Reference value :  9.61350e-04 Reference value :  9.66050e-04 Reference value :  9.69250e-04 Reference value :  9.72450e-04 Reference value :  9.75650e-04 Reference value :  9.78950e-04 Reference value :  9.82150e-04 Reference value :  9.85350e-04 Reference value :  9.88550e-04 Reference value :  9.91750e-04 Reference value :  9.94950e-04 Reference value :  9.98150e-04
No. of Data Rows : 10033

  Measurements for Transient Analysis

pvdd_pre_dip        =  1.159335e+00
pvdd_during_dip     =  1.049160e+00
pvdd_post_recovery  =  1.108131e+00
pvdd_min_dip        =  1.021421e+00 at=  4.056093e-04

Error: &pvdd_pre_dip: no such variable.
Error: &pvdd_during_dip: no such variable.
Error: &pvdd_min_dip: no such variable.
Warning from checkvalid: vector pvdd_pre_dip is not available or has zero length.
Error: RHS "(pvdd_pre_dip - pvdd_min_dip) * 1000" invalid
Error: &pvdd_drop_mV: no such variable.
Error: &pvdd_post_recovery: no such variable.
Warning from checkvalid: vector pvdd_post_recovery is not available or has zero length.
Warning from checkvalid: vector pvdd_post_recovery is not available or has zero length.
Error: RHS "pvdd_post_recovery" invalid
Warning from checkvalid: vector pvdd_final is not available or has zero length.
Using SPARSE 1.3 as Direct Linear Solver
pvdd_pre_dip_V:
pvdd_during_dip_V:
pvdd_min_during_dip_V:
pvdd_drop_during_crank_mV:
pvdd_post_recovery_V:
cold_crank_recovery: 0
no_latch_stuck: 0
Doing analysis at TEMP = 27.000000 and TNOM = 27.000000

Using transient initial conditions
 Reference value :  1.02795e-09 Reference value :  1.15387e-06 Reference value :  2.70972e-06 Reference value :  5.10972e-06 Reference value :  8.30972e-06 Reference value :  1.12500e-05 Reference value :  1.44500e-05 Reference value :  1.76500e-05 Reference value :  2.08500e-05 Reference value :  2.41500e-05 Reference value :  2.82500e-05 Reference value :  3.18500e-05 Reference value :  3.52500e-05 Reference value :  4.39500e-05 Reference value :  4.71500e-05 Reference value :  5.03500e-05 Reference value :  5.35500e-05 Reference value :  5.67500e-05 Reference value :  5.99500e-05 Reference value :  6.31500e-05 Reference value :  6.63500e-05 Reference value :  6.95500e-05 Reference value :  7.27500e-05 Reference value :  7.59500e-05 Reference value :  7.91500e-05 Reference value :  8.23500e-05 Reference value :  8.55500e-05 Reference value :  8.87500e-05 Reference value :  9.19500e-05 Reference value :  9.51500e-05 Reference value :  9.83500e-05 Reference value :  1.01550e-04 Reference value :  1.04750e-04 Reference value :  1.07950e-04 Reference value :  1.11150e-04 Reference value :  1.14350e-04 Reference value :  1.17550e-04 Reference value :  1.20750e-04 Reference value :  1.23950e-04 Reference value :  1.27150e-04 Reference value :  1.30350e-04 Reference value :  1.33550e-04 Reference value :  1.36750e-04 Reference value :  1.39950e-04 Reference value :  1.43150e-04 Reference value :  1.46350e-04 Reference value :  1.49950e-04 Reference value :  1.53150e-04 Reference value :  1.56350e-04 Reference value :  1.59550e-04 Reference value :  1.62750e-04 Reference value :  1.65950e-04 Reference value :  1.69150e-04 Reference value :  1.72350e-04 Reference value :  1.75550e-04 Reference value :  1.78750e-04 Reference value :  1.81950e-04 Reference value :  1.85150e-04 Reference value :  1.92450e-04 Reference value :  1.98050e-04 Reference value :  2.02318e-04 Reference value :  2.10350e-04 Reference value :  2.13550e-04 Reference value :  2.16750e-04 Reference value :  2.19950e-04 Reference value :  2.23150e-04 Reference value :  2.26350e-04 Reference value :  2.29550e-04 Reference value :  2.32750e-04 Reference value :  2.35950e-04 Reference value :  2.39150e-04 Reference value :  2.42350e-04 Reference value :  2.45650e-04 Reference value :  2.49150e-04 Reference value :  2.52350e-04 Reference value :  2.55550e-04 Reference value :  2.58750e-04 Reference value :  2.61950e-04 Reference value :  2.65150e-04 Reference value :  2.68350e-04 Reference value :  2.71550e-04 Reference value :  2.74850e-04 Reference value :  2.78050e-04 Reference value :  2.81250e-04 Reference value :  2.84450e-04 Reference value :  2.87650e-04 Reference value :  2.90850e-04 Reference value :  2.94050e-04 Reference value :  2.97250e-04 Reference value :  3.00450e-04 Reference value :  3.03650e-04 Reference value :  3.06850e-04 Reference value :  3.10050e-04 Reference value :  3.13250e-04 Reference value :  3.16450e-04 Reference value :  3.19650e-04 Reference value :  3.22850e-04 Reference value :  3.26050e-04 Reference value :  3.29250e-04 Reference value :  3.32450e-04 Reference value :  3.35650e-04 Reference value :  3.38850e-04 Reference value :  3.42050e-04 Reference value :  3.45350e-04 Reference value :  3.48550e-04 Reference value :  3.51750e-04 Reference value :  3.54950e-04 Reference value :  3.58150e-04 Reference value :  3.61350e-04 Reference value :  3.64550e-04 Reference value :  3.67750e-04 Reference value :  3.70950e-04 Reference value :  3.74150e-04 Reference value :  3.77350e-04 Reference value :  3.80550e-04 Reference value :  3.83850e-04 Reference value :  3.87050e-04 Reference value :  3.90250e-04 Reference value :  3.93450e-04 Reference value :  3.96650e-04 Reference value :  4.00709e-04 Reference value :  4.14450e-04 Reference value :  4.29650e-04 Reference value :  4.44850e-04 Reference value :  4.55450e-04 Reference value :  4.71050e-04 Reference value :  4.81050e-04 Reference value :  4.96550e-04 Reference value :  5.02450e-04 Reference value :  5.05650e-04 Reference value :  5.08850e-04 Reference value :  5.12050e-04 Reference value :  5.15350e-04 Reference value :  5.18550e-04 Reference value :  5.21750e-04 Reference value :  5.24950e-04 Reference value :  5.28150e-04 Reference value :  5.31350e-04 Reference value :  5.34550e-04 Reference value :  5.37750e-04 Reference value :  5.40950e-04 Reference value :  5.44150e-04 Reference value :  5.47350e-04 Reference value :  5.50550e-04 Reference value :  5.53750e-04 Reference value :  5.56950e-04 Reference value :  5.60150e-04 Reference value :  5.63350e-04 Reference value :  5.66550e-04 Reference value :  5.69750e-04 Reference value :  5.72950e-04 Reference value :  5.76150e-04 Reference value :  5.79350e-04 Reference value :  5.82550e-04 Reference value :  5.85750e-04 Reference value :  5.88950e-04 Reference value :  5.92150e-04 Reference value :  5.95350e-04 Reference value :  5.98650e-04 Reference value :  6.01850e-04 Reference value :  6.05050e-04 Reference value :  6.08250e-04 Reference value :  6.11450e-04 Reference value :  6.15550e-04 Reference value :  6.27350e-04 Reference value :  6.37550e-04 Reference value :  6.45350e-04 Reference value :  6.50550e-04 Reference value :  6.53750e-04 Reference value :  6.56950e-04 Reference value :  6.60150e-04 Reference value :  6.63350e-04 Reference value :  6.66550e-04 Reference value :  6.69750e-04 Reference value :  6.72950e-04 Reference value :  6.76150e-04 Reference value :  6.79350e-04 Reference value :  6.82550e-04 Reference value :  6.85750e-04 Reference value :  6.88950e-04 Reference value :  6.92150e-04 Reference value :  6.95350e-04 Reference value :  6.98550e-04 Reference value :  7.01750e-04 Reference value :  7.04950e-04 Reference value :  7.08150e-04 Reference value :  7.11350e-04 Reference value :  7.14550e-04 Reference value :  7.17750e-04 Reference value :  7.20950e-04 Reference value :  7.24150e-04 Reference value :  7.27350e-04 Reference value :  7.30550e-04 Reference value :  7.33750e-04 Reference value :  7.36850e-04 Reference value :  7.40050e-04 Reference value :  7.43250e-04 Reference value :  7.46450e-04 Reference value :  7.49650e-04 Reference value :  7.52850e-04 Reference value :  7.56050e-04 Reference value :  7.59250e-04 Reference value :  7.62550e-04 Reference value :  7.65750e-04 Reference value :  7.68950e-04 Reference value :  7.72150e-04 Reference value :  7.75350e-04 Reference value :  7.78550e-04 Reference value :  7.81750e-04 Reference value :  7.84950e-04 Reference value :  7.88150e-04 Reference value :  7.91350e-04 Reference value :  7.94550e-04 Reference value :  7.97750e-04 Reference value :  8.00950e-04 Reference value :  8.04150e-04 Reference value :  8.07350e-04 Reference value :  8.10550e-04 Reference value :  8.13750e-04 Reference value :  8.16950e-04 Reference value :  8.20150e-04 Reference value :  8.23350e-04 Reference value :  8.26950e-04 Reference value :  8.34450e-04 Reference value :  8.43950e-04 Reference value :  8.48350e-04 Reference value :  8.51550e-04 Reference value :  8.54850e-04 Reference value :  8.58050e-04 Reference value :  8.61250e-04 Reference value :  8.64450e-04 Reference value :  8.67650e-04 Reference value :  8.70850e-04 Reference value :  8.74050e-04 Reference value :  8.77250e-04 Reference value :  8.80450e-04 Reference value :  8.83650e-04 Reference value :  8.86850e-04 Reference value :  8.90050e-04 Reference value :  8.93250e-04 Reference value :  8.96450e-04 Reference value :  8.99650e-04 Reference value :  9.02850e-04 Reference value :  9.06050e-04 Reference value :  9.09250e-04 Reference value :  9.12550e-04 Reference value :  9.15750e-04 Reference value :  9.18950e-04 Reference value :  9.22150e-04 Reference value :  9.25350e-04 Reference value :  9.28550e-04 Reference value :  9.31750e-04 Reference value :  9.34950e-04 Reference value :  9.38150e-04 Reference value :  9.41350e-04 Reference value :  9.44550e-04 Reference value :  9.47750e-04 Reference value :  9.50950e-04 Reference value :  9.54150e-04 Reference value :  9.57350e-04 Reference value :  9.60550e-04 Reference value :  9.63750e-04 Reference value :  9.66950e-04 Reference value :  9.70250e-04 Reference value :  9.73450e-04 Reference value :  9.76650e-04 Reference value :  9.79850e-04 Reference value :  9.83050e-04 Reference value :  9.86250e-04 Reference value :  9.89450e-04 Reference value :  9.92650e-04 Reference value :  9.95850e-04 Reference value :  9.99050e-04
No. of Data Rows : 10033

  Measurements for Transient Analysis

pvdd_pre_dip        =  1.159335e+00
pvdd_during_dip     =  1.049160e+00
pvdd_post_recovery  =  1.108131e+00
pvdd_min_dip        =  1.021421e+00 at=  4.056093e-04


Total analysis time (seconds) = 135.806

Total elapsed time (seconds) = 136.945 

Total DRAM available = 3834.176 MB.
DRAM currently available =  549.770 MB.
Maximum ngspice program size =   66.332 MB.
Current ngspice program size =   49.672 MB.

Shared ngspice pages =   10.688 MB.
Text (code) pages =    6.156 MB.
Stack = 0 bytes.
Library pages =   47.086 MB.


--- Running tb_su_leakage.spice ---
Using SPARSE 1.3 as Direct Linear Solver

Note: No compatibility mode selected!


Circuit: * tb_su_leakage.spice — post-startup leakage measurement, tt 27c, 1v/us

Doing analysis at TEMP = 27.000000 and TNOM = 27.000000

Using transient initial conditions
[...]
No. of Data Rows : 8043

  Measurements for Transient Analysis

t_bvdd_56           =   4.66667e-07
t_pvdd_settle       =   5.45107e-04
pvdd_max            =  1.049990e+01 at=  5.719330e-04


Total analysis time (seconds) = 113.826

Total elapsed time (seconds) = 114.999 

Total DRAM available = 3834.176 MB.
DRAM currently available =  566.316 MB.
Maximum ngspice program size =   63.461 MB.
Current ngspice program size =   46.852 MB.

Shared ngspice pages =   10.750 MB.
Text (code) pages =    6.156 MB.
Stack = 0 bytes.
Library pages =   44.215 MB.


--- Running tb_su_pvt.spice ---
Using SPARSE 1.3 as Direct Linear Solver

Note: No compatibility mode selected!


Circuit: * tb_su_pvt.spice — pvt latch-up check, tt 27c, 1v/us, no load

Doing analysis at TEMP = 27.000000 and TNOM = 27.000000

Using transient initial conditions
 Reference value :  1.00000e-09 Reference value :  8.53870e-07 Reference value :  2.40985e-06 Reference value :  4.90985e-06 Reference value :  7.55000e-06 Reference value :  1.07500e-05 Reference value :  1.39500e-05 Reference value :  1.71500e-05 Reference value :  2.03500e-05 Reference value :  2.35500e-05 Reference value :  2.67500e-05 Reference value :  2.99500e-05 Reference value :  3.31500e-05 Reference value :  3.63500e-05 Reference value :  3.95500e-05 Reference value :  4.27500e-05 Reference value :  4.59500e-05 Reference value :  4.91500e-05 Reference value :  5.23500e-05 Reference value :  5.55500e-05 Reference value :  5.87500e-05 Reference value :  6.19500e-05 Reference value :  6.51500e-05 Reference value :  6.83500e-05 Reference value :  7.15500e-05 Reference value :  7.47500e-05 Reference value :  7.79500e-05 Reference value :  8.11500e-05 Reference value :  8.43500e-05 Reference value :  8.75500e-05 Reference value :  9.07500e-05 Reference value :  9.39500e-05 Reference value :  1.04650e-04 Reference value :  1.10450e-04 Reference value :  1.19950e-04 Reference value :  1.24450e-04 Reference value :  1.28450e-04 Reference value :  1.39250e-04 Reference value :  1.52350e-04 Reference value :  1.59150e-04 Reference value :  1.71050e-04 Reference value :  1.76150e-04 Reference value :  1.79550e-04 Reference value :  1.85750e-04 Reference value :  1.88950e-04 Reference value :  1.92150e-04 Reference value :  1.95350e-04 Reference value :  1.98550e-04 Reference value :  2.01750e-04 Reference value :  2.04950e-04 Reference value :  2.08150e-04 Reference value :  2.11350e-04 Reference value :  2.14550e-04 Reference value :  2.17750e-04 Reference value :  2.20950e-04 Reference value :  2.24150e-04 Reference value :  2.27350e-04 Reference value :  2.30550e-04 Reference value :  2.33750e-04 Reference value :  2.36950e-04 Reference value :  2.40150e-04 Reference value :  2.43450e-04 Reference value :  2.46650e-04 Reference value :  2.50250e-04 Reference value :  2.53450e-04 Reference value :  2.56650e-04 Reference value :  2.59850e-04 Reference value :  2.63050e-04 Reference value :  2.66250e-04 Reference value :  2.69450e-04 Reference value :  2.72650e-04 Reference value :  2.75850e-04 Reference value :  2.79050e-04 Reference value :  2.82250e-04 Reference value :  2.85450e-04 Reference value :  2.88650e-04 Reference value :  2.91850e-04 Reference value :  2.95050e-04 Reference value :  2.98850e-04 Reference value :  3.14150e-04 Reference value :  3.26650e-04 Reference value :  3.35450e-04 Reference value :  3.41250e-04 Reference value :  3.44450e-04 Reference value :  3.47650e-04 Reference value :  3.50850e-04 Reference value :  3.54050e-04 Reference value :  3.57250e-04 Reference value :  3.60450e-04 Reference value :  3.63650e-04 Reference value :  3.66850e-04 Reference value :  3.70050e-04 Reference value :  3.73250e-04 Reference value :  3.76450e-04 Reference value :  3.79650e-04 Reference value :  3.82850e-04 Reference value :  3.86050e-04 Reference value :  3.89250e-04 Reference value :  3.92550e-04 Reference value :  3.95750e-04 Reference value :  3.98950e-04 Reference value :  4.02150e-04 Reference value :  4.05350e-04 Reference value :  4.08550e-04 Reference value :  4.11750e-04 Reference value :  4.14950e-04 Reference value :  4.26950e-04 Reference value :  4.36450e-04 Reference value :  4.42350e-04 Reference value :  4.48350e-04 Reference value :  4.51550e-04 Reference value :  4.54750e-04 Reference value :  4.58050e-04 Reference value :  4.61250e-04 Reference value :  4.64450e-04 Reference value :  4.67650e-04 Reference value :  4.70850e-04 Reference value :  4.74050e-04 Reference value :  4.77250e-04 Reference value :  4.80450e-04 Reference value :  4.83650e-04 Reference value :  4.86850e-04 Reference value :  4.90050e-04 Reference value :  4.93250e-04 Reference value :  4.96450e-04 Reference value :  4.99650e-04 Reference value :  5.02850e-04 Reference value :  5.06050e-04 Reference value :  5.09250e-04 Reference value :  5.12750e-04 Reference value :  5.15950e-04 Reference value :  5.19150e-04 Reference value :  5.22350e-04 Reference value :  5.25650e-04 Reference value :  5.28850e-04 Reference value :  5.32050e-04 Reference value :  5.35250e-04 Reference value :  5.38450e-04 Reference value :  5.41650e-04 Reference value :  5.44850e-04 Reference value :  5.48050e-04 Reference value :  5.51250e-04 Reference value :  5.54450e-04 Reference value :  5.57650e-04 Reference value :  5.60850e-04 Reference value :  5.64050e-04 Reference value :  5.67250e-04 Reference value :  5.70450e-04 Reference value :  5.73550e-04 Reference value :  5.76750e-04 Reference value :  5.79950e-04 Reference value :  5.83150e-04 Reference value :  5.86350e-04 Reference value :  5.89650e-04 Reference value :  5.92850e-04 Reference value :  5.96050e-04 Reference value :  5.99250e-04 Reference value :  6.02450e-04 Reference value :  6.05650e-04 Reference value :  6.08850e-04 Reference value :  6.12050e-04 Reference value :  6.15250e-04 Reference value :  6.18450e-04 Reference value :  6.21650e-04 Reference value :  6.24850e-04 Reference value :  6.28050e-04 Reference value :  6.31250e-04 Reference value :  6.34550e-04 Reference value :  6.37750e-04 Reference value :  6.40950e-04 Reference value :  6.44150e-04 Reference value :  6.47350e-04 Reference value :  6.50550e-04 Reference value :  6.53750e-04 Reference value :  6.56950e-04 Reference value :  6.60150e-04 Reference value :  6.63350e-04 Reference value :  6.66550e-04 Reference value :  6.69750e-04 Reference value :  6.72950e-04 Reference value :  6.76150e-04 Reference value :  6.79350e-04 Reference value :  6.82550e-04 Reference value :  6.85850e-04 Reference value :  6.89050e-04 Reference value :  6.92250e-04 Reference value :  6.95450e-04 Reference value :  6.98750e-04 Reference value :  7.01950e-04 Reference value :  7.05150e-04 Reference value :  7.08350e-04 Reference value :  7.11550e-04 Reference value :  7.14750e-04 Reference value :  7.17950e-04 Reference value :  7.21150e-04 Reference value :  7.24350e-04 Reference value :  7.27550e-04 Reference value :  7.30750e-04 Reference value :  7.33950e-04 Reference value :  7.37450e-04 Reference value :  7.40650e-04 Reference value :  7.43850e-04 Reference value :  7.47050e-04 Reference value :  7.50250e-04 Reference value :  7.53450e-04 Reference value :  7.56650e-04 Reference value :  7.59850e-04 Reference value :  7.63050e-04 Reference value :  7.66250e-04 Reference value :  7.69650e-04 Reference value :  7.76550e-04 Reference value :  7.81350e-04 Reference value :  7.86350e-04
No. of Data Rows : 8020

  Measurements for Transient Analysis


Error: measure  t_pvdd_settle  when(WHEN) : out of interval
 .meas tran t_pvdd_settle when v(pvdd)=4.95 rise=1 failed!

t_bvdd_56           =   5.60000e-06
pvdd_max            =  1.154114e+00 at=  5.213500e-04

Warning from checkvalid: vector t_pvdd_settle is not available or has zero length.
Using SPARSE 1.3 as Direct Linear Solver
startup_time_pvt_us: 999
pvdd_final          =  1.129076e+00
pvdd_final_V: 1.12908
pvdd_overshoot_mV: 0
sd_final            =  1.221474e-06
startup_done_final_V: 1.22147E-06
ea_en_final         =  -5.131515e-06
ea_en_final_V: -5.13152E-06
gate_final          =  6.615952e+00
gate_final_V: 6.61595
pvdd_in_regulation: 0
startup_done_high: 0
ea_en_high: 0
gate_reasonable: 0
no_latchup: 0
Doing analysis at TEMP = 27.000000 and TNOM = 27.000000

Using transient initial conditions
 Reference value :  1.00000e-09 Reference value :  8.53870e-07 Reference value :  2.40985e-06 Reference value :  4.90985e-06 Reference value :  7.55000e-06 Reference value :  1.07500e-05 Reference value :  1.39500e-05 Reference value :  1.71500e-05 Reference value :  2.03500e-05 Reference value :  2.35500e-05 Reference value :  2.67500e-05 Reference value :  2.99500e-05 Reference value :  3.31500e-05 Reference value :  3.63500e-05 Reference value :  3.95500e-05 Reference value :  4.27500e-05 Reference value :  4.59500e-05 Reference value :  4.91500e-05 Reference value :  5.23500e-05 Reference value :  5.55500e-05 Reference value :  5.87500e-05 Reference value :  6.19500e-05 Reference value :  6.51500e-05 Reference value :  6.83500e-05 Reference value :  7.15500e-05 Reference value :  7.47500e-05 Reference value :  7.79500e-05 Reference value :  8.11500e-05 Reference value :  8.43500e-05 Reference value :  8.74500e-05 Reference value :  9.06500e-05 Reference value :  9.38500e-05 Reference value :  9.70500e-05 Reference value :  1.00150e-04 Reference value :  1.03350e-04 Reference value :  1.06550e-04 Reference value :  1.09750e-04 Reference value :  1.12950e-04 Reference value :  1.16150e-04 Reference value :  1.19350e-04 Reference value :  1.22550e-04 Reference value :  1.25750e-04 Reference value :  1.28950e-04 Reference value :  1.32150e-04 Reference value :  1.35350e-04 Reference value :  1.38550e-04 Reference value :  1.41750e-04 Reference value :  1.44950e-04 Reference value :  1.48150e-04 Reference value :  1.51350e-04 Reference value :  1.55150e-04 Reference value :  1.59250e-04 Reference value :  1.62850e-04 Reference value :  1.67750e-04 Reference value :  1.73150e-04 Reference value :  1.76350e-04 Reference value :  1.79550e-04 Reference value :  1.82750e-04 Reference value :  1.85950e-04 Reference value :  1.89150e-04 Reference value :  1.92350e-04 Reference value :  1.95550e-04 Reference value :  1.98750e-04 Reference value :  2.01950e-04 Reference value :  2.05150e-04 Reference value :  2.08350e-04 Reference value :  2.11550e-04 Reference value :  2.14750e-04 Reference value :  2.17950e-04 Reference value :  2.21150e-04 Reference value :  2.24350e-04 Reference value :  2.27550e-04 Reference value :  2.30950e-04 Reference value :  2.40350e-04 Reference value :  2.43650e-04 Reference value :  2.46850e-04 Reference value :  2.50050e-04 Reference value :  2.53350e-04 Reference value :  2.56550e-04 Reference value :  2.59750e-04 Reference value :  2.63050e-04 Reference value :  2.66250e-04 Reference value :  2.69450e-04 Reference value :  2.72650e-04 Reference value :  2.75850e-04 Reference value :  2.79050e-04 Reference value :  2.82250e-04 Reference value :  2.85450e-04 Reference value :  2.88650e-04 Reference value :  2.91850e-04 Reference value :  2.95050e-04 Reference value :  2.98250e-04 Reference value :  3.01450e-04 Reference value :  3.04650e-04 Reference value :  3.07850e-04 Reference value :  3.11050e-04 Reference value :  3.14250e-04 Reference value :  3.17450e-04 Reference value :  3.20650e-04 Reference value :  3.23850e-04 Reference value :  3.27050e-04 Reference value :  3.30250e-04 Reference value :  3.33450e-04 Reference value :  3.36650e-04 Reference value :  3.39850e-04 Reference value :  3.43050e-04 Reference value :  3.46250e-04 Reference value :  3.49450e-04 Reference value :  3.52650e-04 Reference value :  3.55850e-04 Reference value :  3.59050e-04 Reference value :  3.62250e-04 Reference value :  3.65450e-04 Reference value :  3.68650e-04 Reference value :  3.71850e-04 Reference value :  3.75050e-04 Reference value :  3.78250e-04 Reference value :  3.81550e-04 Reference value :  3.84750e-04 Reference value :  3.88050e-04 Reference value :  3.91250e-04 Reference value :  3.94450e-04 Reference value :  3.97650e-04 Reference value :  4.00850e-04 Reference value :  4.04050e-04 Reference value :  4.07250e-04 Reference value :  4.10450e-04 Reference value :  4.13650e-04 Reference value :  4.16850e-04 Reference value :  4.20050e-04 Reference value :  4.23250e-04 Reference value :  4.26450e-04 Reference value :  4.29650e-04 Reference value :  4.32850e-04 Reference value :  4.36050e-04 Reference value :  4.39350e-04 Reference value :  4.42550e-04 Reference value :  4.45750e-04 Reference value :  4.48950e-04 Reference value :  4.52150e-04 Reference value :  4.55350e-04 Reference value :  4.58550e-04 Reference value :  4.61750e-04 Reference value :  4.64950e-04 Reference value :  4.68150e-04 Reference value :  4.71350e-04 Reference value :  4.74550e-04 Reference value :  4.77750e-04 Reference value :  4.80950e-04 Reference value :  4.84150e-04 Reference value :  4.87350e-04 Reference value :  4.90550e-04 Reference value :  4.93750e-04 Reference value :  4.96950e-04 Reference value :  5.00150e-04 Reference value :  5.03350e-04 Reference value :  5.06550e-04 Reference value :  5.09750e-04 Reference value :  5.12950e-04 Reference value :  5.16150e-04 Reference value :  5.19850e-04 Reference value :  5.27750e-04 Reference value :  5.42750e-04 Reference value :  5.58350e-04 Reference value :  5.70750e-04 Reference value :  5.83550e-04 Reference value :  5.86850e-04 Reference value :  5.93850e-04 Reference value :  5.98650e-04 Reference value :  6.01850e-04 Reference value :  6.05050e-04 Reference value :  6.08250e-04 Reference value :  6.11450e-04 Reference value :  6.14650e-04 Reference value :  6.17850e-04 Reference value :  6.21050e-04 Reference value :  6.24450e-04 Reference value :  6.27650e-04 Reference value :  6.30850e-04 Reference value :  6.34050e-04 Reference value :  6.37350e-04 Reference value :  6.40550e-04 Reference value :  6.43750e-04 Reference value :  6.46950e-04 Reference value :  6.50150e-04 Reference value :  6.53350e-04 Reference value :  6.56550e-04 Reference value :  6.59750e-04 Reference value :  6.62950e-04 Reference value :  6.65750e-04 Reference value :  6.68950e-04 Reference value :  6.72150e-04 Reference value :  6.75350e-04 Reference value :  6.78550e-04 Reference value :  6.81750e-04 Reference value :  6.84950e-04 Reference value :  6.88150e-04 Reference value :  6.91350e-04 Reference value :  6.94550e-04 Reference value :  6.97750e-04 Reference value :  7.06550e-04 Reference value :  7.12450e-04 Reference value :  7.18050e-04 Reference value :  7.32850e-04 Reference value :  7.43850e-04 Reference value :  7.53450e-04 Reference value :  7.66750e-04 Reference value :  7.71150e-04 Reference value :  7.77350e-04 Reference value :  7.84250e-04 Reference value :  7.89450e-04 Reference value :  7.94650e-04
No. of Data Rows : 8020

  Measurements for Transient Analysis


Error: measure  t_pvdd_settle  when(WHEN) : out of interval
 .meas tran t_pvdd_settle when v(pvdd)=4.95 rise=1 failed!

t_bvdd_56           =   5.60000e-06
pvdd_max            =  1.154114e+00 at=  5.213500e-04


Total analysis time (seconds) = 109.31

Total elapsed time (seconds) = 110.473 

Total DRAM available = 3834.176 MB.
DRAM currently available =  564.883 MB.
Maximum ngspice program size =   63.375 MB.
Current ngspice program size =   46.715 MB.

Shared ngspice pages =   10.703 MB.
Text (code) pages =    6.156 MB.
Stack = 0 bytes.
Library pages =   44.129 MB.


--- Evaluation ---
---
* startup_time_ss150_us                   999  us        (spec <= 100.0)  FAIL
  startup_time_50mA_us                    999  us        (spec <= 200.0)  FAIL
  pvdd_monotonic                            1  bool      (spec >= 1.0)  PASS
  pvdd_overshoot_mV                         0  mV        (spec <= 200.0)  PASS
  handoff_glitch_mV                       ???  mV        (spec <= 100.0)  MISSING
  works_slow_ramp                         ???  bool      (spec >= 1.0)  MISSING
  works_fast_ramp                           0  bool      (spec >= 1.0)  FAIL
  cold_crank_ok                           ???  bool      (spec >= 1.0)  MISSING
  leakage_after_uA                        ???  uA        (spec <= 1.0)  MISSING
  no_overshoot_ff_m40                     ???  bool      (spec >= 1.0)  MISSING
  no_latch_stuck                            1  bool      (spec >= 1.0)  PASS
specs_pass: 3/11
primary (startup_time_ss150_us): 999

Run finished: Mon Mar 30 01:17:10 UTC 2026
