=== Block 09: Startup Circuit ===
Run started: Mon Mar 30 02:27:47 UTC 2026

--- Running tb_su_basic.spice ---
Using SPARSE 1.3 as Direct Linear Solver

Note: No compatibility mode selected!


Circuit: * tb_su_basic.spice — basic startup test, tt 27c, 1v/us, no load

Doing analysis at TEMP = 27.000000 and TNOM = 27.000000

Using transient initial conditions
 Reference value :  1.00000e-09 Reference value :  2.00165e-05 Reference value :  4.78165e-05 Reference value :  7.56165e-05 Reference value :  1.03416e-04 Reference value :  1.31216e-04 Reference value :  1.59016e-04 Reference value :  1.86816e-04 Reference value :  2.14616e-04 Reference value :  2.42416e-04 Reference value :  2.70216e-04 Reference value :  2.97916e-04 Reference value :  3.25716e-04 Reference value :  3.53516e-04 Reference value :  3.81316e-04 Reference value :  4.09116e-04 Reference value :  4.37016e-04 Reference value :  4.64816e-04 Reference value :  4.92616e-04 Reference value :  5.20416e-04 Reference value :  5.47116e-04 Reference value :  5.74816e-04 Reference value :  6.02416e-04 Reference value :  6.30116e-04 Reference value :  6.57816e-04 Reference value :  6.85516e-04 Reference value :  7.13116e-04 Reference value :  7.40716e-04 Reference value :  7.67216e-04 Reference value :  7.95016e-04
No. of Data Rows : 8025

  Measurements for Transient Analysis

t_bvdd_56           =   5.60000e-06
t_pvdd_settle       =   2.53190e-04
pvdd_max            =  5.168482e+00 at=  4.640165e-04

Warning from checkvalid: vector t_pvdd_settle is not available or has zero length.
Using SPARSE 1.3 as Direct Linear Solver
startup_time_basic_us: 999
pvdd_overshoot_mV: 168.482
pvdd_peak_V: 5.16848
min_dpvdd_V_per_s: -4777.64
pvdd_monotonic: 1
pvdd_final          =  4.978087e+00
pvdd_final_V: 4.97809
no_latch_stuck: 1
Doing analysis at TEMP = 27.000000 and TNOM = 27.000000

Using transient initial conditions
 Reference value :  1.16165e-05 Reference value :  3.96165e-05 Reference value :  6.76165e-05 Reference value :  9.45165e-05 Reference value :  1.22416e-04 Reference value :  1.50516e-04 Reference value :  1.77416e-04 Reference value :  2.05516e-04 Reference value :  2.33516e-04 Reference value :  2.61616e-04 Reference value :  2.89616e-04 Reference value :  3.17616e-04 Reference value :  3.45616e-04 Reference value :  3.72716e-04 Reference value :  4.00816e-04 Reference value :  4.28916e-04 Reference value :  4.57016e-04 Reference value :  4.85116e-04 Reference value :  5.13116e-04 Reference value :  5.41116e-04 Reference value :  5.69116e-04 Reference value :  5.96116e-04 Reference value :  6.24216e-04 Reference value :  6.52216e-04 Reference value :  6.80316e-04 Reference value :  7.08416e-04 Reference value :  7.36516e-04 Reference value :  7.64616e-04 Reference value :  7.92616e-04
No. of Data Rows : 8025

  Measurements for Transient Analysis

t_bvdd_56           =   5.60000e-06
t_pvdd_settle       =   2.53190e-04
pvdd_max            =  5.168482e+00 at=  4.640165e-04


Total analysis time (seconds) = 7.328

Total elapsed time (seconds) = 7.907 

Total DRAM available = 3834.176 MB.
DRAM currently available =  562.617 MB.
Maximum ngspice program size =   62.062 MB.
Current ngspice program size =   45.406 MB.

Shared ngspice pages =   10.703 MB.
Text (code) pages =    6.156 MB.
Stack = 0 bytes.
Library pages =   42.816 MB.


--- Running tb_su_handoff.spice ---
Using SPARSE 1.3 as Direct Linear Solver

Note: No compatibility mode selected!


Circuit: * tb_su_handoff.spice — handoff glitch test, tt 27c, 1v/us, no load

Doing analysis at TEMP = 27.000000 and TNOM = 27.000000

Using transient initial conditions
 Reference value :  1.00000e-09 Reference value :  2.02165e-05 Reference value :  4.81165e-05 Reference value :  7.60165e-05 Reference value :  1.03216e-04 Reference value :  1.31016e-04 Reference value :  1.58716e-04 Reference value :  1.86516e-04 Reference value :  2.14316e-04 Reference value :  2.42216e-04 Reference value :  2.69616e-04 Reference value :  2.97016e-04 Reference value :  3.23716e-04 Reference value :  3.51516e-04 Reference value :  3.79316e-04 Reference value :  4.07116e-04 Reference value :  4.34916e-04 Reference value :  4.62816e-04 Reference value :  4.90616e-04 Reference value :  5.18416e-04 Reference value :  5.45316e-04 Reference value :  5.73116e-04 Reference value :  6.00916e-04 Reference value :  6.28716e-04 Reference value :  6.56516e-04 Reference value :  6.84316e-04 Reference value :  7.12016e-04 Reference value :  7.39816e-04 Reference value :  7.65916e-04 Reference value :  7.93716e-04
No. of Data Rows : 8025

  Measurements for Transient Analysis


Error: measure  t_handoff  when(WHEN) : out of interval
 .meas tran t_handoff when v(ea_en)=2.5 rise=1 failed!

pvdd_final          =  4.978087e+00

Warning from checkvalid: vector t_handoff is not available or has zero length.

Error: measure  pvdd_at_start  find(AT) : out of interval

Error: measure  pvdd_at_end  find(AT) : out of interval
Warning from checkvalid: vector pvdd_at_start is not available or has zero length.
Error: RHS "(pvdd_max_ho - pvdd_at_start) * 1000" invalid
Warning from checkvalid: vector pvdd_at_start is not available or has zero length.
Error: RHS "(pvdd_at_start - pvdd_min_ho) * 1000" invalid
Error: &glitch_high_mV: no such variable.
Error: &glitch_low_mV: no such variable.
Error: &pvdd_final: no such variable.
Warning from checkvalid: vector pvdd_final is not available or has zero length.
Using SPARSE 1.3 as Direct Linear Solver
ea_en_transition_time_s: 999
 meas tran pvdd_at_start find v(pvdd) at=999 failed!

 meas tran pvdd_at_end find v(pvdd) at=999 failed!

pvdd_min_ho         =  0.000000e+00 at=  0.000000e+00
pvdd_max_ho         =  0.000000e+00 at=  0.000000e+00
handoff_glitch_high_mV:
handoff_glitch_low_mV:
handoff_glitch_pp_mV: 0
handoff_clean: 1
pvdd_final_V:
no_latch_stuck: 0
Doing analysis at TEMP = 27.000000 and TNOM = 27.000000

Using transient initial conditions
 Reference value :  1.03165e-05 Reference value :  3.84165e-05 Reference value :  6.65165e-05 Reference value :  9.46165e-05 Reference value :  1.22516e-04 Reference value :  1.50516e-04 Reference value :  1.77516e-04 Reference value :  2.05616e-04 Reference value :  2.33816e-04 Reference value :  2.62016e-04 Reference value :  2.90116e-04 Reference value :  3.18316e-04 Reference value :  3.46516e-04 Reference value :  3.74616e-04 Reference value :  4.01616e-04 Reference value :  4.29616e-04 Reference value :  4.57616e-04 Reference value :  4.85616e-04 Reference value :  5.13616e-04 Reference value :  5.41616e-04 Reference value :  5.69516e-04 Reference value :  5.97516e-04 Reference value :  6.23216e-04 Reference value :  6.50816e-04 Reference value :  6.78716e-04 Reference value :  7.06716e-04 Reference value :  7.34716e-04 Reference value :  7.62816e-04 Reference value :  7.90916e-04
No. of Data Rows : 8025

  Measurements for Transient Analysis


Error: measure  t_handoff  when(WHEN) : out of interval
 .meas tran t_handoff when v(ea_en)=2.5 rise=1 failed!

pvdd_final          =  4.978087e+00


Total analysis time (seconds) = 7.355

Total elapsed time (seconds) = 7.940 

Total DRAM available = 3834.176 MB.
DRAM currently available =  565.820 MB.
Maximum ngspice program size =   62.062 MB.
Current ngspice program size =   45.379 MB.

Shared ngspice pages =   10.676 MB.
Text (code) pages =    6.156 MB.
Stack = 0 bytes.
Library pages =   42.816 MB.


--- Running tb_su_50mA.spice ---
Using SPARSE 1.3 as Direct Linear Solver

Note: No compatibility mode selected!


Circuit: * tb_su_50ma.spice — startup with 50ma load, tt 27c, 1v/us

Doing analysis at TEMP = 27.000000 and TNOM = 27.000000

Using transient initial conditions
 Reference value :  1.00000e-09 Reference value :  1.80052e-05 Reference value :  4.04052e-05 Reference value :  6.20052e-05 Reference value :  8.42052e-05 Reference value :  1.06205e-04 Reference value :  1.31005e-04 Reference value :  1.58305e-04 Reference value :  1.85605e-04 Reference value :  2.12905e-04 Reference value :  2.40405e-04 Reference value :  2.66705e-04 Reference value :  2.93305e-04 Reference value :  3.19805e-04 Reference value :  3.47105e-04 Reference value :  3.74405e-04 Reference value :  4.01705e-04 Reference value :  4.29005e-04 Reference value :  4.56305e-04 Reference value :  4.83405e-04 Reference value :  5.10005e-04 Reference value :  5.36105e-04 Reference value :  5.63405e-04 Reference value :  5.90705e-04 Reference value :  6.18005e-04 Reference value :  6.45405e-04 Reference value :  6.72605e-04 Reference value :  6.97805e-04 Reference value :  7.25005e-04 Reference value :  7.51005e-04 Reference value :  7.78505e-04
No. of Data Rows : 8021

  Measurements for Transient Analysis

t_bvdd_56           =   5.60000e-06
t_pvdd_settle       =   2.88186e-04
pvdd_max            =  5.149743e+00 at=  4.724052e-04

Warning from checkvalid: vector t_pvdd_settle is not available or has zero length.
Using SPARSE 1.3 as Direct Linear Solver
startup_time_50mA_us: 999
pvdd_overshoot_mV: 149.743
pvdd_peak_V: 5.14974
pvdd_final          =  4.977195e+00
pvdd_final_V: 4.9772
load_current_mA: 49.772
no_latch_stuck: 1
Doing analysis at TEMP = 27.000000 and TNOM = 27.000000

Using transient initial conditions
 Reference value :  3.53754e-07 Reference value :  2.00052e-05 Reference value :  4.29052e-05 Reference value :  6.58052e-05 Reference value :  8.73052e-05 Reference value :  1.10605e-04 Reference value :  1.35705e-04 Reference value :  1.63405e-04 Reference value :  1.91105e-04 Reference value :  2.18805e-04 Reference value :  2.46505e-04 Reference value :  2.73305e-04 Reference value :  2.98405e-04 Reference value :  3.25805e-04 Reference value :  3.53105e-04 Reference value :  3.80805e-04 Reference value :  4.08505e-04 Reference value :  4.36205e-04 Reference value :  4.63805e-04 Reference value :  4.90505e-04 Reference value :  5.16005e-04 Reference value :  5.42305e-04 Reference value :  5.70005e-04 Reference value :  5.97605e-04 Reference value :  6.25205e-04 Reference value :  6.52905e-04 Reference value :  6.80605e-04 Reference value :  7.07205e-04 Reference value :  7.33805e-04 Reference value :  7.60205e-04 Reference value :  7.88005e-04
No. of Data Rows : 8021

  Measurements for Transient Analysis

t_bvdd_56           =   5.60000e-06
t_pvdd_settle       =   2.88186e-04
pvdd_max            =  5.149743e+00 at=  4.724052e-04


Total analysis time (seconds) = 7.748

Total elapsed time (seconds) = 8.335 

Total DRAM available = 3834.176 MB.
DRAM currently available =  563.914 MB.
Maximum ngspice program size =   62.059 MB.
Current ngspice program size =   45.434 MB.

Shared ngspice pages =   10.734 MB.
Text (code) pages =    6.156 MB.
Stack = 0 bytes.
Library pages =   42.812 MB.


--- Running tb_su_fast_ramp.spice ---
Using SPARSE 1.3 as Direct Linear Solver

Note: No compatibility mode selected!


Circuit: * tb_su_fast_ramp.spice — fast bvdd ramp 12v/us, tt 27c, no load

Doing analysis at TEMP = 27.000000 and TNOM = 27.000000

Using transient initial conditions
 Reference value :  1.00000e-09 Reference value :  7.87681e-06 Reference value :  2.67768e-05 Reference value :  4.60768e-05 Reference value :  6.58768e-05 Reference value :  8.56768e-05 Reference value :  1.05377e-04 Reference value :  1.25177e-04 Reference value :  1.47177e-04 Reference value :  1.69977e-04 Reference value :  1.91577e-04 Reference value :  2.18477e-04 Reference value :  2.45177e-04 Reference value :  2.71677e-04 Reference value :  2.98277e-04 Reference value :  3.24977e-04 Reference value :  3.51977e-04 Reference value :  3.78977e-04 Reference value :  4.04877e-04 Reference value :  4.32377e-04 Reference value :  4.59777e-04 Reference value :  4.86677e-04 Reference value :  5.13177e-04 Reference value :  5.40377e-04 Reference value :  5.67277e-04 Reference value :  5.94077e-04 Reference value :  6.19977e-04 Reference value :  6.46777e-04 Reference value :  6.73677e-04 Reference value :  7.00777e-04 Reference value :  7.27577e-04 Reference value :  7.54477e-04 Reference value :  7.81177e-04
No. of Data Rows : 8063

  Measurements for Transient Analysis

t_bvdd_56           =   4.66667e-07
t_pvdd_settle       =   1.32304e-04
pvdd_max            =  5.256655e+00 at=  3.131768e-04

Warning from checkvalid: vector t_pvdd_settle is not available or has zero length.
Using SPARSE 1.3 as Direct Linear Solver
startup_time_fast_ramp_us: 999
pvdd_overshoot_mV: 256.655
pvdd_peak_V: 5.25666
pvdd_final          =  4.993847e+00
pvdd_final_V: 4.99385
works_fast_ramp: 1
no_latch_stuck: 1
Doing analysis at TEMP = 27.000000 and TNOM = 27.000000

Using transient initial conditions
 Reference value :  1.18503e-07 Reference value :  9.87681e-06 Reference value :  2.96768e-05 Reference value :  4.91768e-05 Reference value :  6.90768e-05 Reference value :  8.88768e-05 Reference value :  1.08977e-04 Reference value :  1.28677e-04 Reference value :  1.50877e-04 Reference value :  1.72277e-04 Reference value :  1.95577e-04 Reference value :  2.22177e-04 Reference value :  2.48677e-04 Reference value :  2.74777e-04 Reference value :  3.01577e-04 Reference value :  3.28477e-04 Reference value :  3.53677e-04 Reference value :  3.79177e-04 Reference value :  4.05477e-04 Reference value :  4.32877e-04 Reference value :  4.60477e-04 Reference value :  4.88177e-04 Reference value :  5.15877e-04 Reference value :  5.41477e-04 Reference value :  5.67677e-04 Reference value :  5.93577e-04 Reference value :  6.20677e-04 Reference value :  6.48177e-04 Reference value :  6.75777e-04 Reference value :  7.03277e-04 Reference value :  7.30477e-04 Reference value :  7.58177e-04 Reference value :  7.85877e-04
No. of Data Rows : 8063

  Measurements for Transient Analysis

t_bvdd_56           =   4.66667e-07
t_pvdd_settle       =   1.32304e-04
pvdd_max            =  5.256655e+00 at=  3.131768e-04


Total analysis time (seconds) = 8.271

Total elapsed time (seconds) = 8.858 

Total DRAM available = 3834.176 MB.
DRAM currently available =  558.949 MB.
Maximum ngspice program size =   62.070 MB.
Current ngspice program size =   45.398 MB.

Shared ngspice pages =   10.695 MB.
Text (code) pages =    6.156 MB.
Stack = 0 bytes.
Library pages =   42.824 MB.


--- Running tb_su_slow_ramp.spice ---
Using SPARSE 1.3 as Direct Linear Solver

Note: No compatibility mode selected!


Circuit: * tb_su_slow_ramp.spice — slow bvdd ramp 0.1v/us, tt 27c, no load

Doing analysis at TEMP = 27.000000 and TNOM = 27.000000

Using transient initial conditions
 Reference value :  1.00000e-09 Reference value :  2.45538e-05 Reference value :  5.22538e-05 Reference value :  7.24119e-05 Reference value :  9.45119e-05 Reference value :  1.20150e-04 Reference value :  1.47950e-04 Reference value :  1.75850e-04 Reference value :  2.03650e-04 Reference value :  2.31450e-04 Reference value :  2.59250e-04 Reference value :  2.85850e-04 Reference value :  3.13550e-04 Reference value :  3.41250e-04 Reference value :  3.69050e-04 Reference value :  3.96850e-04 Reference value :  4.24650e-04 Reference value :  4.52450e-04 Reference value :  4.80250e-04 Reference value :  5.06150e-04 Reference value :  5.33650e-04 Reference value :  5.61450e-04 Reference value :  5.89250e-04 Reference value :  6.17050e-04 Reference value :  6.44850e-04 Reference value :  6.72650e-04 Reference value :  7.00350e-04 Reference value :  7.26950e-04 Reference value :  7.54650e-04 Reference value :  7.82250e-04 Reference value :  8.09950e-04 Reference value :  8.37650e-04 Reference value :  8.65350e-04 Reference value :  8.93150e-04 Reference value :  9.20950e-04 Reference value :  9.39350e-04 Reference value :  9.58450e-04 Reference value :  9.86150e-04
No. of Data Rows : 10021

  Measurements for Transient Analysis

t_bvdd_56           =   5.60000e-05
t_pvdd_settle       =   1.95028e-04
pvdd_max            =  5.259392e+00 at=  3.798500e-04

Warning from checkvalid: vector t_pvdd_settle is not available or has zero length.
Using SPARSE 1.3 as Direct Linear Solver
startup_time_slow_ramp_us: 999
pvdd_overshoot_mV: 259.392
pvdd_peak_V: 5.25939
pvdd_final          =  4.997548e+00
pvdd_final_V: 4.99755
pvdd_regulates_slow_ramp: 1
no_latch_stuck: 1
Doing analysis at TEMP = 27.000000 and TNOM = 27.000000

Using transient initial conditions
 Reference value :  7.05380e-06 Reference value :  3.40538e-05 Reference value :  6.00119e-05 Reference value :  7.97119e-05 Reference value :  1.01412e-04 Reference value :  1.25150e-04 Reference value :  1.50150e-04 Reference value :  1.78150e-04 Reference value :  2.06150e-04 Reference value :  2.34050e-04 Reference value :  2.61950e-04 Reference value :  2.88550e-04 Reference value :  3.16450e-04 Reference value :  3.44450e-04 Reference value :  3.72450e-04 Reference value :  4.00450e-04 Reference value :  4.28450e-04 Reference value :  4.56450e-04 Reference value :  4.84450e-04 Reference value :  5.11050e-04 Reference value :  5.38950e-04 Reference value :  5.66850e-04 Reference value :  5.94850e-04 Reference value :  6.22850e-04 Reference value :  6.50750e-04 Reference value :  6.78750e-04 Reference value :  7.06750e-04 Reference value :  7.33750e-04 Reference value :  7.61650e-04 Reference value :  7.89550e-04 Reference value :  8.17450e-04 Reference value :  8.45450e-04 Reference value :  8.73450e-04 Reference value :  9.01450e-04 Reference value :  9.29450e-04 Reference value :  9.56150e-04 Reference value :  9.84150e-04
No. of Data Rows : 10021

  Measurements for Transient Analysis

t_bvdd_56           =   5.60000e-05
t_pvdd_settle       =   1.95028e-04
pvdd_max            =  5.259392e+00 at=  3.798500e-04


Total analysis time (seconds) = 9.632

Total elapsed time (seconds) = 10.228 

Total DRAM available = 3834.176 MB.
DRAM currently available =  558.578 MB.
Maximum ngspice program size =   64.914 MB.
Current ngspice program size =   48.215 MB.

Shared ngspice pages =   10.648 MB.
Text (code) pages =    6.156 MB.
Stack = 0 bytes.
Library pages =   45.668 MB.


--- Running tb_su_cold_crank.spice ---
Using SPARSE 1.3 as Direct Linear Solver

Note: No compatibility mode selected!


Circuit: * tb_su_cold_crank.spice — cold crank bvdd profile, tt 27c

Doing analysis at TEMP = 27.000000 and TNOM = 27.000000

Using transient initial conditions
 Reference value :  1.00000e-09 Reference value :  1.89484e-05 Reference value :  4.55484e-05 Reference value :  7.33484e-05 Reference value :  1.01248e-04 Reference value :  1.29148e-04 Reference value :  1.57048e-04 Reference value :  1.84848e-04 Reference value :  2.11750e-04 Reference value :  2.31758e-04 Reference value :  2.52358e-04 Reference value :  2.72858e-04 Reference value :  2.94658e-04 Reference value :  3.19858e-04 Reference value :  3.47658e-04 Reference value :  3.75558e-04 Reference value :  4.02650e-04 Reference value :  4.25850e-04 Reference value :  4.52750e-04 Reference value :  4.80550e-04 Reference value :  5.08450e-04 Reference value :  5.36350e-04 Reference value :  5.64250e-04 Reference value :  5.92150e-04 Reference value :  6.20050e-04 Reference value :  6.46450e-04 Reference value :  6.74250e-04 Reference value :  7.02050e-04 Reference value :  7.29850e-04 Reference value :  7.57650e-04 Reference value :  7.85450e-04 Reference value :  8.13250e-04 Reference value :  8.41050e-04 Reference value :  8.67850e-04 Reference value :  8.95650e-04 Reference value :  9.23450e-04 Reference value :  9.51250e-04 Reference value :  9.79150e-04
No. of Data Rows : 10040

  Measurements for Transient Analysis

pvdd_pre_dip        =  5.087630e+00
pvdd_during_dip     =  1.792065e+00
pvdd_post_recovery  =  4.982205e+00
pvdd_min_dip        =  1.699777e+00 at=  4.011500e-04

Error: &pvdd_pre_dip: no such variable.
Error: &pvdd_during_dip: no such variable.
Error: &pvdd_min_dip: no such variable.
Warning from checkvalid: vector pvdd_pre_dip is not available or has zero length.
Error: RHS "(pvdd_pre_dip - pvdd_min_dip) * 1000" invalid
Error: &pvdd_drop_mV: no such variable.
Error: &pvdd_post_recovery: no such variable.
Warning from checkvalid: vector pvdd_post_recovery is not available or has zero length.
Warning from checkvalid: vector pvdd_post_recovery is not available or has zero length.
Error: RHS "pvdd_post_recovery" invalid
Warning from checkvalid: vector pvdd_final is not available or has zero length.
Using SPARSE 1.3 as Direct Linear Solver
pvdd_pre_dip_V:
pvdd_during_dip_V:
pvdd_min_during_dip_V:
pvdd_drop_during_crank_mV:
pvdd_post_recovery_V:
cold_crank_recovery: 0
no_latch_stuck: 0
Doing analysis at TEMP = 27.000000 and TNOM = 27.000000

Using transient initial conditions
 Reference value :  4.53775e-07 Reference value :  2.17484e-05 Reference value :  4.97484e-05 Reference value :  7.68484e-05 Reference value :  1.04948e-04 Reference value :  1.33048e-04 Reference value :  1.61148e-04 Reference value :  1.89248e-04 Reference value :  2.14758e-04 Reference value :  2.35458e-04 Reference value :  2.56158e-04 Reference value :  2.75958e-04 Reference value :  2.98358e-04 Reference value :  3.24458e-04 Reference value :  3.52558e-04 Reference value :  3.80758e-04 Reference value :  4.06754e-04 Reference value :  4.32850e-04 Reference value :  4.61050e-04 Reference value :  4.87850e-04 Reference value :  5.15950e-04 Reference value :  5.44050e-04 Reference value :  5.72250e-04 Reference value :  6.00350e-04 Reference value :  6.28450e-04 Reference value :  6.56650e-04 Reference value :  6.84850e-04 Reference value :  7.11850e-04 Reference value :  7.40050e-04 Reference value :  7.68250e-04 Reference value :  7.96450e-04 Reference value :  8.24650e-04 Reference value :  8.52850e-04 Reference value :  8.81050e-04 Reference value :  9.09250e-04 Reference value :  9.35850e-04 Reference value :  9.63950e-04 Reference value :  9.92050e-04
No. of Data Rows : 10040

  Measurements for Transient Analysis

pvdd_pre_dip        =  5.087630e+00
pvdd_during_dip     =  1.792065e+00
pvdd_post_recovery  =  4.982205e+00
pvdd_min_dip        =  1.699777e+00 at=  4.011500e-04


Total analysis time (seconds) = 9.497

Total elapsed time (seconds) = 10.085 

Total DRAM available = 3834.176 MB.
DRAM currently available =  562.031 MB.
Maximum ngspice program size =   64.918 MB.
Current ngspice program size =   48.230 MB.

Shared ngspice pages =   10.656 MB.
Text (code) pages =    6.156 MB.
Stack = 0 bytes.
Library pages =   45.672 MB.


--- Running tb_su_leakage.spice ---
Using SPARSE 1.3 as Direct Linear Solver

Note: No compatibility mode selected!


Circuit: * tb_su_leakage.spice — post-startup leakage measurement, tt 27c, 1v/us

Doing analysis at TEMP = 27.000000 and TNOM = 27.000000

Using transient initial conditions
 Reference value :  1.00000e-09 Reference value :  1.90165e-05 Reference value :  4.67165e-05 Reference value :  7.44165e-05 Reference value :  1.02116e-04 Reference value :  1.29416e-04 Reference value :  1.56716e-04 Reference value :  1.84216e-04 Reference value :  2.11616e-04 Reference value :  2.38216e-04 Reference value :  2.65716e-04 Reference value :  2.93116e-04 Reference value :  3.20616e-04 Reference value :  3.48216e-04 Reference value :  3.75816e-04 Reference value :  4.03416e-04 Reference value :  4.30916e-04 Reference value :  4.57216e-04 Reference value :  4.84616e-04 Reference value :  5.12216e-04 Reference value :  5.39816e-04 Reference value :  5.67416e-04 Reference value :  5.95116e-04 Reference value :  6.22716e-04 Reference value :  6.50416e-04 Reference value :  6.76016e-04 Reference value :  7.03616e-04 Reference value :  7.31316e-04 Reference value :  7.59016e-04 Reference value :  7.86716e-04
No. of Data Rows : 8025

  Measurements for Transient Analysis

pvdd_final          =  4.978087e+00

Error: nostrchring on a scalar (@vbvdd[i])
  in term: @vbvdd[i][length(@vbvdd[i])-1]

Error: Can't evaluate "@vbvdd[i][length(@vbvdd[i])-1]"
Warning from checkvalid: vector ibvdd_final is not available or has zero length.
Error: RHS "ibvdd_final * 1e6" invalid
Warning from checkvalid: vector ibvdd_ua is not available or has zero length.
Error: RHS "abs(ibvdd_ua)" invalid
Error: &ibvdd_abs_uA: no such variable.
Error: &pvdd_final: no such variable.
Warning from checkvalid: vector pvdd_final is not available or has zero length.
Using SPARSE 1.3 as Direct Linear Solver
bvdd_supply_current_uA:
ibvdd_avg           =  0.000000e+00 from=  6.000000e-04 to=  1.000000e-09
bvdd_avg_leakage_uA: 0
pvdd_final_V:
leakage_ok: 1
no_latch_stuck: 0
Doing analysis at TEMP = 27.000000 and TNOM = 27.000000

Using transient initial conditions
 Reference value :  5.91061e-06 Reference value :  3.04165e-05 Reference value :  5.82165e-05 Reference value :  8.50165e-05 Reference value :  1.12916e-04 Reference value :  1.40916e-04 Reference value :  1.68916e-04 Reference value :  1.96916e-04 Reference value :  2.24916e-04 Reference value :  2.52916e-04 Reference value :  2.79916e-04 Reference value :  3.07816e-04 Reference value :  3.35816e-04 Reference value :  3.63816e-04 Reference value :  3.91816e-04 Reference value :  4.19716e-04 Reference value :  4.47616e-04 Reference value :  4.75516e-04 Reference value :  5.02416e-04 Reference value :  5.30316e-04 Reference value :  5.58216e-04 Reference value :  5.86116e-04 Reference value :  6.14016e-04 Reference value :  6.41916e-04 Reference value :  6.69816e-04 Reference value :  6.97716e-04 Reference value :  7.24716e-04 Reference value :  7.52416e-04 Reference value :  7.80116e-04
No. of Data Rows : 8025

  Measurements for Transient Analysis

pvdd_final          =  4.978087e+00


Total analysis time (seconds) = 7.395

Total elapsed time (seconds) = 7.982 

Total DRAM available = 3834.176 MB.
DRAM currently available =  560.328 MB.
Maximum ngspice program size =   61.754 MB.
Current ngspice program size =   45.227 MB.

Shared ngspice pages =   10.773 MB.
Text (code) pages =    6.156 MB.
Stack = 0 bytes.
Library pages =   42.508 MB.


--- Running tb_su_inrush.spice ---
Using SPARSE 1.3 as Direct Linear Solver

Note: No compatibility mode selected!


Circuit: * tb_su_inrush.spice — measure peak bvdd inrush current, tt 27c, 1v/us

Doing analysis at TEMP = 27.000000 and TNOM = 27.000000

Using transient initial conditions
 Reference value :  1.00000e-09 Reference value :  1.87165e-05 Reference value :  4.65165e-05 Reference value :  7.43165e-05 Reference value :  1.02116e-04 Reference value :  1.29316e-04 Reference value :  1.57116e-04 Reference value :  1.84916e-04 Reference value :  2.12616e-04 Reference value :  2.39416e-04 Reference value :  2.67216e-04 Reference value :  2.95016e-04 Reference value :  3.22816e-04 Reference value :  3.50616e-04 Reference value :  3.78316e-04 Reference value :  4.06016e-04 Reference value :  4.33816e-04 Reference value :  4.60116e-04 Reference value :  4.87916e-04 Reference value :  5.15716e-04 Reference value :  5.43516e-04 Reference value :  5.71416e-04 Reference value :  5.99316e-04 Reference value :  6.27216e-04 Reference value :  6.55016e-04 Reference value :  6.81616e-04 Reference value :  7.09416e-04 Reference value :  7.37216e-04 Reference value :  7.65016e-04 Reference value :  7.92816e-04
No. of Data Rows : 8025

  Measurements for Transient Analysis

pvdd_final          =  4.978087e+00


Error: measure  ibvdd_avg_startup  avg(TRIG) : out of interval
Warning from checkvalid: vector ibvdd_avg_startup is not available or has zero length.
Error: RHS "abs(ibvdd_avg_startup) * 1000" invalid
Error: &avg_startup_mA: no such variable.
Error: &pvdd_final: no such variable.
Warning from checkvalid: vector pvdd_final is not available or has zero length.
Using SPARSE 1.3 as Direct Linear Solver
peak_inrush_mA: 21.8806
peak_power_mW: 63.1769
 meas tran ibvdd_avg_startup avg @vbvdd[i] from=0 to=50u failed!

avg_inrush_startup_mA:
inrush_ok: 1
pvdd_final_V:
no_latch_stuck: 0
Doing analysis at TEMP = 27.000000 and TNOM = 27.000000

Using transient initial conditions
 Reference value :  9.41646e-06 Reference value :  3.75165e-05 Reference value :  6.56165e-05 Reference value :  9.27165e-05 Reference value :  1.20716e-04 Reference value :  1.48716e-04 Reference value :  1.76716e-04 Reference value :  2.04716e-04 Reference value :  2.32716e-04 Reference value :  2.60716e-04 Reference value :  2.88716e-04 Reference value :  3.14616e-04 Reference value :  3.42616e-04 Reference value :  3.70716e-04 Reference value :  3.98816e-04 Reference value :  4.26916e-04 Reference value :  4.55016e-04 Reference value :  4.83116e-04 Reference value :  5.11216e-04 Reference value :  5.38016e-04 Reference value :  5.66116e-04 Reference value :  5.94216e-04 Reference value :  6.22316e-04 Reference value :  6.50316e-04 Reference value :  6.78416e-04 Reference value :  7.06416e-04 Reference value :  7.33316e-04 Reference value :  7.61316e-04 Reference value :  7.89416e-04
No. of Data Rows : 8025

  Measurements for Transient Analysis

pvdd_final          =  4.978087e+00


Total analysis time (seconds) = 7.368

Total elapsed time (seconds) = 7.946 

Total DRAM available = 3834.176 MB.
DRAM currently available =  566.363 MB.
Maximum ngspice program size =   61.816 MB.
Current ngspice program size =   45.395 MB.

Shared ngspice pages =   10.879 MB.
Text (code) pages =    6.156 MB.
Stack = 0 bytes.
Library pages =   42.570 MB.


--- Running tb_su_ss150.spice ---
Using SPARSE 1.3 as Direct Linear Solver

Note: No compatibility mode selected!


Circuit: * tb_su_ss150.spice — ss corner 150c, 1v/us, no load

Doing analysis at TEMP = 150.000000 and TNOM = 27.000000

Using transient initial conditions
 Reference value :  1.00000e-09 Reference value :  1.81033e-05 Reference value :  4.08033e-05 Reference value :  6.42033e-05 Reference value :  9.17033e-05 Reference value :  1.19203e-04 Reference value :  1.46703e-04 Reference value :  1.74303e-04 Reference value :  2.01903e-04 Reference value :  2.28603e-04 Reference value :  2.56103e-04 Reference value :  2.83603e-04 Reference value :  3.11203e-04 Reference value :  3.38803e-04 Reference value :  3.66303e-04 Reference value :  3.93803e-04 Reference value :  4.21203e-04 Reference value :  4.47803e-04 Reference value :  4.75303e-04 Reference value :  5.02803e-04 Reference value :  5.30203e-04 Reference value :  5.57703e-04 Reference value :  5.85103e-04 Reference value :  6.12503e-04 Reference value :  6.40103e-04 Reference value :  6.66503e-04 Reference value :  6.93803e-04 Reference value :  7.21203e-04 Reference value :  7.48703e-04 Reference value :  7.76203e-04
No. of Data Rows : 8021

  Measurements for Transient Analysis

t_bvdd_56           =   5.60000e-06
t_pvdd_settle       =   3.38663e-04
pvdd_max            =  4.979804e+00 at=  3.840033e-04

Warning from checkvalid: vector t_pvdd_settle is not available or has zero length.
Using SPARSE 1.3 as Direct Linear Solver
startup_time_ss150_us: 999
pvdd_overshoot_mV: 0
pvdd_peak_V: 4.9798
min_dpvdd_V_per_s: -3703.74
pvdd_monotonic: 1
pvdd_final          =  4.941541e+00
pvdd_final_V: 4.94154
no_latch_stuck: 1
Doing analysis at TEMP = 150.000000 and TNOM = 27.000000

Using transient initial conditions
 Reference value :  1.02796e-09 Reference value :  1.88033e-05 Reference value :  4.19033e-05 Reference value :  6.44033e-05 Reference value :  9.21033e-05 Reference value :  1.19903e-04 Reference value :  1.47703e-04 Reference value :  1.75503e-04 Reference value :  2.03303e-04 Reference value :  2.30903e-04 Reference value :  2.58503e-04 Reference value :  2.85303e-04 Reference value :  3.13003e-04 Reference value :  3.40803e-04 Reference value :  3.68603e-04 Reference value :  3.96503e-04 Reference value :  4.24403e-04 Reference value :  4.52303e-04 Reference value :  4.80203e-04 Reference value :  5.06903e-04 Reference value :  5.34603e-04 Reference value :  5.62303e-04 Reference value :  5.90003e-04 Reference value :  6.17803e-04 Reference value :  6.45603e-04 Reference value :  6.73403e-04 Reference value :  7.01203e-04 Reference value :  7.27803e-04 Reference value :  7.55803e-04 Reference value :  7.83803e-04
No. of Data Rows : 8021

  Measurements for Transient Analysis

t_bvdd_56           =   5.60000e-06
t_pvdd_settle       =   3.38663e-04
pvdd_max            =  4.979804e+00 at=  3.840033e-04


Total analysis time (seconds) = 7.51

Total elapsed time (seconds) = 8.089 

Total DRAM available = 3834.176 MB.
DRAM currently available =  558.566 MB.
Maximum ngspice program size =   62.109 MB.
Current ngspice program size =   45.547 MB.

Shared ngspice pages =   10.801 MB.
Text (code) pages =    6.156 MB.
Stack = 0 bytes.
Library pages =   42.863 MB.


--- Running tb_su_ff_m40.spice ---
Using SPARSE 1.3 as Direct Linear Solver

Note: No compatibility mode selected!


Circuit: * tb_su_ff_m40.spice — ff corner -40c, 12v/us fast ramp, no load

Doing analysis at TEMP = -40.000000 and TNOM = 27.000000

Using transient initial conditions
 Reference value :  1.00000e-09 Reference value :  7.45322e-06 Reference value :  2.75532e-05 Reference value :  4.78532e-05 Reference value :  6.82532e-05 Reference value :  8.85532e-05 Reference value :  1.08853e-04 Reference value :  1.29253e-04 Reference value :  1.49453e-04 Reference value :  1.68553e-04 Reference value :  1.88753e-04 Reference value :  2.09953e-04 Reference value :  2.33353e-04 Reference value :  2.57753e-04 Reference value :  2.85353e-04 Reference value :  3.12953e-04 Reference value :  3.40553e-04 Reference value :  3.67053e-04 Reference value :  3.94653e-04 Reference value :  4.22253e-04 Reference value :  4.49853e-04 Reference value :  4.77453e-04 Reference value :  5.05153e-04 Reference value :  5.32853e-04 Reference value :  5.60453e-04 Reference value :  5.87053e-04 Reference value :  6.14653e-04 Reference value :  6.42353e-04 Reference value :  6.70053e-04 Reference value :  6.97753e-04 Reference value :  7.25353e-04 Reference value :  7.53053e-04 Reference value :  7.79953e-04 Reference value :  7.83153e-04
No. of Data Rows : 8063

  Measurements for Transient Analysis

t_bvdd_56           =   4.66667e-07
t_pvdd_settle       =   1.10450e-06
pvdd_max            =  5.296005e+00 at=  4.061532e-04

Warning from checkvalid: vector t_pvdd_settle is not available or has zero length.
Using SPARSE 1.3 as Direct Linear Solver
startup_time_ff_m40_us: 999
pvdd_overshoot_mV: 296.005
pvdd_peak_V: 5.296
min_dpvdd_V_per_s: -405780
pvdd_monotonic: 1
pvdd_final          =  4.993308e+00
pvdd_final_V: 4.99331
no_latch_stuck: 1
Doing analysis at TEMP = -40.000000 and TNOM = 27.000000

Using transient initial conditions
 Reference value :  1.03600e-07 Reference value :  1.04532e-05 Reference value :  3.08532e-05 Reference value :  5.12532e-05 Reference value :  7.14532e-05 Reference value :  9.13532e-05 Reference value :  1.11653e-04 Reference value :  1.32253e-04 Reference value :  1.52853e-04 Reference value :  1.73353e-04 Reference value :  1.93853e-04 Reference value :  2.16053e-04 Reference value :  2.38853e-04 Reference value :  2.64453e-04 Reference value :  2.92353e-04 Reference value :  3.20253e-04 Reference value :  3.48153e-04 Reference value :  3.76053e-04 Reference value :  4.03753e-04 Reference value :  4.31653e-04 Reference value :  4.58453e-04 Reference value :  4.86453e-04 Reference value :  5.14353e-04 Reference value :  5.42253e-04 Reference value :  5.70153e-04 Reference value :  5.98053e-04 Reference value :  6.26053e-04 Reference value :  6.53953e-04 Reference value :  6.80753e-04 Reference value :  7.08653e-04 Reference value :  7.36253e-04 Reference value :  7.64153e-04 Reference value :  7.92053e-04
No. of Data Rows : 8063

  Measurements for Transient Analysis

t_bvdd_56           =   4.66667e-07
t_pvdd_settle       =   1.10450e-06
pvdd_max            =  5.296005e+00 at=  4.061532e-04


Total analysis time (seconds) = 8.58

Total elapsed time (seconds) = 9.167 

Total DRAM available = 3834.176 MB.
DRAM currently available =  568.277 MB.
Maximum ngspice program size =   62.152 MB.
Current ngspice program size =   45.367 MB.

Shared ngspice pages =   10.578 MB.
Text (code) pages =    6.156 MB.
Stack = 0 bytes.
Library pages =   42.906 MB.


--- Running tb_su_pvt.spice ---
Using SPARSE 1.3 as Direct Linear Solver

Note: No compatibility mode selected!


Circuit: * tb_su_pvt.spice — pvt latch-up check, tt 27c, 1v/us, no load

Doing analysis at TEMP = 27.000000 and TNOM = 27.000000

Using transient initial conditions
 Reference value :  1.00000e-09 Reference value :  1.99165e-05 Reference value :  4.75165e-05 Reference value :  7.50165e-05 Reference value :  1.02516e-04 Reference value :  1.30016e-04 Reference value :  1.57416e-04 Reference value :  1.83916e-04 Reference value :  2.10416e-04 Reference value :  2.37916e-04 Reference value :  2.65516e-04 Reference value :  2.93116e-04 Reference value :  3.20716e-04 Reference value :  3.48416e-04 Reference value :  3.76016e-04 Reference value :  4.02116e-04 Reference value :  4.29816e-04 Reference value :  4.57416e-04 Reference value :  4.85016e-04 Reference value :  5.12716e-04 Reference value :  5.40416e-04 Reference value :  5.68016e-04 Reference value :  5.95416e-04 Reference value :  6.21616e-04 Reference value :  6.49016e-04 Reference value :  6.76516e-04 Reference value :  7.04016e-04 Reference value :  7.31416e-04 Reference value :  7.58816e-04 Reference value :  7.86316e-04
No. of Data Rows : 8025

  Measurements for Transient Analysis

t_bvdd_56           =   5.60000e-06
t_pvdd_settle       =   2.53190e-04
pvdd_max            =  5.168482e+00 at=  4.640165e-04

Warning from checkvalid: vector t_pvdd_settle is not available or has zero length.
Using SPARSE 1.3 as Direct Linear Solver
startup_time_pvt_us: 999
pvdd_final          =  4.978087e+00
pvdd_final_V: 4.97809
pvdd_overshoot_mV: 168.482
sd_final            =  6.999999e+00
startup_done_final_V: 7
ea_en_final         =  1.864861e+00
ea_en_final_V: 1.86486
gate_final          =  5.867997e+00
gate_final_V: 5.868
pvdd_in_regulation: 1
startup_done_high: 1
ea_en_high: 0
gate_reasonable: 1
no_latchup: 0
Doing analysis at TEMP = 27.000000 and TNOM = 27.000000

Using transient initial conditions
 Reference value :  5.91061e-06 Reference value :  2.96165e-05 Reference value :  5.74165e-05 Reference value :  8.53165e-05 Reference value :  1.13216e-04 Reference value :  1.41016e-04 Reference value :  1.68716e-04 Reference value :  1.96416e-04 Reference value :  2.24116e-04 Reference value :  2.50516e-04 Reference value :  2.78316e-04 Reference value :  3.05916e-04 Reference value :  3.33516e-04 Reference value :  3.60916e-04 Reference value :  3.88516e-04 Reference value :  4.16116e-04 Reference value :  4.43716e-04 Reference value :  4.70316e-04 Reference value :  4.98216e-04 Reference value :  5.26116e-04 Reference value :  5.54016e-04 Reference value :  5.81916e-04 Reference value :  6.09716e-04 Reference value :  6.37516e-04 Reference value :  6.65216e-04 Reference value :  6.91816e-04 Reference value :  7.19516e-04 Reference value :  7.47316e-04 Reference value :  7.75116e-04
No. of Data Rows : 8025

  Measurements for Transient Analysis

t_bvdd_56           =   5.60000e-06
t_pvdd_settle       =   2.53190e-04
pvdd_max            =  5.168482e+00 at=  4.640165e-04


Total analysis time (seconds) = 7.424

Total elapsed time (seconds) = 8.009 

Total DRAM available = 3834.176 MB.
DRAM currently available =  560.312 MB.
Maximum ngspice program size =   62.066 MB.
Current ngspice program size =   45.395 MB.

Shared ngspice pages =   10.691 MB.
Text (code) pages =    6.156 MB.
Stack = 0 bytes.
Library pages =   42.820 MB.


--- Evaluation ---
---
* startup_time_ss150_us                   999  us        (spec <= 100.0)  FAIL
  startup_time_50mA_us                    999  us        (spec <= 200.0)  FAIL
  pvdd_monotonic                            1  bool      (spec >= 1.0)  PASS
  pvdd_overshoot_mV                     168.5  mV        (spec <= 200.0)  PASS
  handoff_glitch_mV                       ???  mV        (spec <= 100.0)  MISSING
  works_slow_ramp                         ???  bool      (spec >= 1.0)  MISSING
  works_fast_ramp                           1  bool      (spec >= 1.0)  PASS
  cold_crank_ok                           ???  bool      (spec >= 1.0)  MISSING
  leakage_after_uA                        ???  uA        (spec <= 1.0)  MISSING
  no_overshoot_ff_m40                     ???  bool      (spec >= 1.0)  MISSING
  no_latch_stuck                            1  bool      (spec >= 1.0)  PASS
specs_pass: 4/11
primary (startup_time_ss150_us): 999

Run finished: Mon Mar 30 02:29:21 UTC 2026
