=== Block 04: Current Limiter (v2) ===
Run started: Sun Mar 29 11:56:37 UTC 2026

--- Running tb_ilim_trip.spice ---
ilim_tt27_mA: 78.2587

--- Running PVT corners ---
ilim_ss150_mA: 130.013
ilim_ff_m40_mA: 43.6327
ilim_tt_-40_mA: 53.8931
ilim_tt_27_mA: 78.2587
ilim_tt_150_mA: 120.747
ilim_ss_-40_mA: 64.939
ilim_ss_27_mA: 91.5593
ilim_ss_150_mA: 130.013
ilim_ff_-40_mA: 43.6327
ilim_ff_27_mA: 64.9513
ilim_ff_150_mA: 108.252
ilim_sf_-40_mA: 54.4758
ilim_sf_27_mA: 78.6484
ilim_sf_150_mA: 118.604
ilim_fs_-40_mA: 53.2188
ilim_fs_27_mA: 78.0186
ilim_fs_150_mA: 122.499

--- Running tb_ilim_transient.spice ---
response_time_us: 0.1
no_oscillation: 1
gate_ripple_mV: 0

--- Running tb_ilim_normal.spice ---
sense_quiescent_uA: 0.000215443
pvdd_impact_mV: 0

--- Running tb_ilim_lstb.spice ---
loop_pm_with_limiter_deg: UNMEASURED

--- Running tb_ilim_short.spice ---
short_circuit_with_limiter_mA: 103.679
gate_int_voltage: 4.58156
ilim_flag_voltage: 1.47502E-09
short_circuit_without_limiter_mA: 597.525
short_circuit_reduction_ratio: 

--- Running tb_ilim_iv.spice ---
Circuit: * tb_ilim_iv.spice — iout vs vout i-v curve showing current limiting

--- Evaluation ---
---
* ilim_ss150_mA                           130  mA        (spec >= 50.0)  PASS
  ilim_tt27_mA                          78.26  mA        (spec >= 60.0)  PASS
  ilim_tt27_mA_max                      78.26  mA        (spec <= 80.0)  PASS
  ilim_ff_m40_mA                        43.63  mA        (spec <= 100.0)  PASS
  response_time_us                        0.1  us        (spec <= 10.0)  PASS
  pvdd_impact_mV                            0  mV        (spec <= 10.0)  PASS
  sense_quiescent_uA                0.0002154  uA        (spec <= 10.0)  PASS
  loop_pm_with_limiter_deg                ???  deg       (spec >= 45.0)  MISSING
  no_oscillation                            1  bool      (spec >= 1.0)  PASS
specs_pass: 8/9
primary (ilim_ss150_mA): 130.013

Run finished: Sun Mar 29 11:56:47 UTC 2026
