=== Block 04: Current Limiter (v2) ===
Run started: Sun Mar 29 12:16:03 UTC 2026

--- Running tb_ilim_trip.spice ---
ilim_tt27_mA: 78.9728

--- Running PVT corners ---
ilim_ss150_mA: 135.695
ilim_ff_m40_mA: 43.432
ilim_tt_-40_mA: 53.839
ilim_tt_27_mA: 78.9728
ilim_tt_150_mA: 125.851
ilim_ss_-40_mA: 65.2166
ilim_ss_27_mA: 93.2395
ilim_ss_150_mA: 135.695
ilim_ff_-40_mA: 43.432
ilim_ff_27_mA: 65.032
ilim_ff_150_mA: 112.34
ilim_sf_-40_mA: 54.1517
ilim_sf_27_mA: 79.1329
ilim_sf_150_mA: 123.294
ilim_fs_-40_mA: 53.4425
ilim_fs_27_mA: 79.0245
ilim_fs_150_mA: 128.012

--- Running tb_ilim_transient.spice ---
response_time_us: 0.1
no_oscillation: 1
gate_ripple_mV: 0

--- Running tb_ilim_normal.spice ---
sense_quiescent_uA: 0.000215444
pvdd_impact_mV: 0

--- Running tb_ilim_lstb.spice ---
loop_pm_with_limiter_deg: 104.384

--- Running tb_ilim_short.spice ---
short_circuit_with_limiter_mA: 104.565
gate_int_voltage: 4.57208
ilim_flag_voltage: 1.47474E-09
short_circuit_without_limiter_mA: 597.485
short_circuit_reduction_ratio: 

--- Running tb_ilim_iv.spice ---
Circuit: * tb_ilim_iv.spice — iout vs vout i-v curve showing current limiting

--- Evaluation ---
---
* ilim_ss150_mA                         135.7  mA        (spec >= 50.0)  PASS
  ilim_tt27_mA                          78.97  mA        (spec >= 60.0)  PASS
  ilim_tt27_mA_max                      78.97  mA        (spec <= 80.0)  PASS
  ilim_ff_m40_mA                        43.43  mA        (spec <= 100.0)  PASS
  response_time_us                        0.1  us        (spec <= 10.0)  PASS
  pvdd_impact_mV                            0  mV        (spec <= 10.0)  PASS
  sense_quiescent_uA                0.0002154  uA        (spec <= 10.0)  PASS
  loop_pm_with_limiter_deg              104.4  deg       (spec >= 45.0)  PASS
  no_oscillation                            1  bool      (spec >= 1.0)  PASS
specs_pass: 9/9
primary (ilim_ss150_mA): 135.695

Run finished: Sun Mar 29 12:16:12 UTC 2026
