=== Block 04: Current Limiter (v2) ===
Run started: Sun Mar 29 12:18:28 UTC 2026

--- Running tb_ilim_trip.spice ---
ilim_tt27_mA: 79.8877

--- Running PVT corners ---
ilim_ss150_mA: 136.793
ilim_ff_m40_mA: 43.9844
ilim_tt_-40_mA: 54.4934
ilim_tt_27_mA: 79.8877
ilim_tt_150_mA: 126.999
ilim_ss_-40_mA: 65.9784
ilim_ss_27_mA: 94.2564
ilim_ss_150_mA: 136.793
ilim_ff_-40_mA: 43.9844
ilim_ff_27_mA: 65.8215
ilim_ff_150_mA: 113.474
ilim_sf_-40_mA: 54.7928
ilim_sf_27_mA: 80.0292
ilim_sf_150_mA: 124.351
ilim_fs_-40_mA: 54.1125
ilim_fs_27_mA: 79.96
ilim_fs_150_mA: 129.228

--- Running tb_ilim_transient.spice ---
response_time_us: 0.1
no_oscillation: 1
gate_ripple_mV: 0

--- Running tb_ilim_normal.spice ---
sense_quiescent_uA: 0.000215444
pvdd_impact_mV: 0

--- Running tb_ilim_lstb.spice ---
loop_pm_with_limiter_deg: 104.546

--- Running tb_ilim_short.spice ---
short_circuit_with_limiter_mA: 105.701
gate_int_voltage: 4.55996
ilim_flag_voltage: 1.47439E-09
short_circuit_without_limiter_mA: 597.485
short_circuit_reduction_ratio: 

--- Running tb_ilim_iv.spice ---
Circuit: * tb_ilim_iv.spice — iout vs vout i-v curve showing current limiting

--- Evaluation ---
---
* ilim_ss150_mA                         136.8  mA        (spec >= 50.0)  PASS
  ilim_tt27_mA                          79.89  mA        (spec >= 60.0)  PASS
  ilim_tt27_mA_max                      79.89  mA        (spec <= 80.0)  PASS
  ilim_ff_m40_mA                        43.98  mA        (spec <= 100.0)  PASS
  response_time_us                        0.1  us        (spec <= 10.0)  PASS
  pvdd_impact_mV                            0  mV        (spec <= 10.0)  PASS
  sense_quiescent_uA                0.0002154  uA        (spec <= 10.0)  PASS
  loop_pm_with_limiter_deg              104.5  deg       (spec >= 45.0)  PASS
  no_oscillation                            1  bool      (spec >= 1.0)  PASS
specs_pass: 9/9
primary (ilim_ss150_mA): 136.793

Run finished: Sun Mar 29 12:18:37 UTC 2026
