=== Block 04: Current Limiter (v2) ===
Run started: Sun Mar 29 12:09:19 UTC 2026

--- Running tb_ilim_trip.spice ---
ilim_tt27_mA: 79.5921

--- Running PVT corners ---
ilim_ss150_mA: 131.6
ilim_ff_m40_mA: 44.4584
ilim_tt_-40_mA: 54.8651
ilim_tt_27_mA: 79.5921
ilim_tt_150_mA: 122.388
ilim_ss_-40_mA: 66.0603
ilim_ss_27_mA: 93.0242
ilim_ss_150_mA: 131.6
ilim_ff_-40_mA: 44.4584
ilim_ff_27_mA: 66.1157
ilim_ff_150_mA: 109.869
ilim_sf_-40_mA: 55.4318
ilim_sf_27_mA: 79.9553
ilim_sf_150_mA: 120.127
ilim_fs_-40_mA: 54.2096
ilim_fs_27_mA: 79.3794
ilim_fs_150_mA: 124.231

--- Running tb_ilim_transient.spice ---
response_time_us: 0.1
no_oscillation: 1
gate_ripple_mV: 0

--- Running tb_ilim_normal.spice ---
sense_quiescent_uA: 0.000215443
pvdd_impact_mV: 0

--- Running tb_ilim_lstb.spice ---
loop_pm_with_limiter_deg: 104.884

--- Running tb_ilim_short.spice ---
short_circuit_with_limiter_mA: 105.334
gate_int_voltage: 4.56387
ilim_flag_voltage: 1.4745E-09
short_circuit_without_limiter_mA: 597.525
short_circuit_reduction_ratio: 

--- Running tb_ilim_iv.spice ---
Circuit: * tb_ilim_iv.spice — iout vs vout i-v curve showing current limiting

--- Evaluation ---
---
* ilim_ss150_mA                         131.6  mA        (spec >= 50.0)  PASS
  ilim_tt27_mA                          79.59  mA        (spec >= 60.0)  PASS
  ilim_tt27_mA_max                      79.59  mA        (spec <= 80.0)  PASS
  ilim_ff_m40_mA                        44.46  mA        (spec <= 100.0)  PASS
  response_time_us                        0.1  us        (spec <= 10.0)  PASS
  pvdd_impact_mV                            0  mV        (spec <= 10.0)  PASS
  sense_quiescent_uA                0.0002154  uA        (spec <= 10.0)  PASS
  loop_pm_with_limiter_deg              104.9  deg       (spec >= 45.0)  PASS
  no_oscillation                            1  bool      (spec >= 1.0)  PASS
specs_pass: 9/9
primary (ilim_ss150_mA): 131.6

Run finished: Sun Mar 29 12:09:28 UTC 2026
