
Note: No compatibility mode selected!


Circuit: * ================================================================

binary raw file "/home/ubuntu/analog-ai-chips/vibrosense/10_fullchain/results/fullchain_outer_race.raw"
Doing analysis at TEMP = 27.000000 and TNOM = 27.000000

Using SPARSE 1.3 as Direct Linear Solver
No. of Data Columns : 42  
Using transient initial conditions
