
Note: No compatibility mode selected!


Circuit: * ================================================================

binary raw file "../results/fullchain_quick.raw"
Doing analysis at TEMP = 27.000000 and TNOM = 27.000000

Using SPARSE 1.3 as Direct Linear Solver
No. of Data Columns : 42  
Using transient initial conditions

No. of Data Rows : 27733

Total analysis time (seconds) = 319.729

Total elapsed time (seconds) = 415.681 

Total DRAM available = 31720.152 MB.
DRAM currently available = 26333.984 MB.
Maximum ngspice program size = 1075.953 MB.
Current ngspice program size = 1059.129 MB.

Shared ngspice pages =   10.676 MB.
Text (code) pages =    6.156 MB.
Stack = 0 bytes.
Library pages = 1056.707 MB.

