
Note: No compatibility mode selected!


Circuit: * ================================================================

binary raw file "../results/fullchain_inner_race.raw"
Doing analysis at TEMP = 27.000000 and TNOM = 27.000000

Using SPARSE 1.3 as Direct Linear Solver
No. of Data Columns : 42  
Using transient initial conditions

No. of Data Rows : 28503

Total analysis time (seconds) = 1359.59

Total elapsed time (seconds) = 1462.978 

Total DRAM available = 31720.152 MB.
DRAM currently available = 25191.578 MB.
Maximum ngspice program size = 1076.117 MB.
Current ngspice program size = 1059.379 MB.

Shared ngspice pages =   10.762 MB.
Text (code) pages =    6.156 MB.
Stack = 0 bytes.
Library pages = 1056.871 MB.

