
Note: No compatibility mode selected!


Circuit: * ================================================================

binary raw file "results/fullchain_ball.raw"
Doing analysis at TEMP = 27.000000 and TNOM = 27.000000

Using SPARSE 1.3 as Direct Linear Solver
No. of Data Columns : 42  
Using transient initial conditions

No. of Data Rows : 107702

Total analysis time (seconds) = 4454.47

Total elapsed time (seconds) = 4550.673 

Total DRAM available = 31720.152 MB.
DRAM currently available = 26135.504 MB.
Maximum ngspice program size = 1076.164 MB.
Current ngspice program size = 1059.395 MB.

Shared ngspice pages =   10.730 MB.
Text (code) pages =    6.156 MB.
Stack = 0 bytes.
Library pages = 1056.918 MB.

