
Note: No compatibility mode selected!


Circuit: * ================================================================

binary raw file "results/fullchain_inner_race.raw"
Doing analysis at TEMP = 27.000000 and TNOM = 27.000000

Using SPARSE 1.3 as Direct Linear Solver
No. of Data Columns : 42  
Using transient initial conditions

No. of Data Rows : 103022

Total analysis time (seconds) = 4256.28

Total elapsed time (seconds) = 4355.225 

Total DRAM available = 31720.152 MB.
DRAM currently available = 25082.895 MB.
Maximum ngspice program size = 1076.172 MB.
Current ngspice program size = 1059.516 MB.

Shared ngspice pages =   10.773 MB.
Text (code) pages =    6.156 MB.
Stack = 0 bytes.
Library pages = 1056.926 MB.

