
Note: No compatibility mode selected!


Circuit: * ================================================================

binary raw file "../results/fullchain_normal.raw"
Doing analysis at TEMP = 27.000000 and TNOM = 27.000000

Using SPARSE 1.3 as Direct Linear Solver
No. of Data Columns : 42  
Using transient initial conditions

No. of Data Rows : 23173

Total analysis time (seconds) = 1066.05

Total elapsed time (seconds) = 1173.818 

Total DRAM available = 31720.152 MB.
DRAM currently available = 23136.047 MB.
Maximum ngspice program size = 1076.160 MB.
Current ngspice program size = 1059.367 MB.

Shared ngspice pages =   10.711 MB.
Text (code) pages =    6.156 MB.
Stack = 0 bytes.
Library pages = 1056.914 MB.

