
Note: No compatibility mode selected!


Circuit: * ================================================================

binary raw file "results/fullchain_normal.raw"
Doing analysis at TEMP = 27.000000 and TNOM = 27.000000

Using SPARSE 1.3 as Direct Linear Solver
No. of Data Columns : 42  
Using transient initial conditions

No. of Data Rows : 59739

Total analysis time (seconds) = 1833.97

Total elapsed time (seconds) = 1934.344 

Total DRAM available = 31720.152 MB.
DRAM currently available = 22906.414 MB.
Maximum ngspice program size = 1076.176 MB.
Current ngspice program size = 1059.207 MB.

Shared ngspice pages =   10.531 MB.
Text (code) pages =    6.156 MB.
Stack = 0 bytes.
Library pages = 1056.930 MB.

