
Note: No compatibility mode selected!


Circuit: * ================================================================

binary raw file "../results/fullchain_ball.raw"
Doing analysis at TEMP = 27.000000 and TNOM = 27.000000

Using SPARSE 1.3 as Direct Linear Solver
No. of Data Columns : 42  
Using transient initial conditions

No. of Data Rows : 29192

Total analysis time (seconds) = 1409.58

Total elapsed time (seconds) = 1511.765 

Total DRAM available = 31720.152 MB.
DRAM currently available = 26266.660 MB.
Maximum ngspice program size = 1076.180 MB.
Current ngspice program size = 1059.270 MB.

Shared ngspice pages =   10.594 MB.
Text (code) pages =    6.156 MB.
Stack = 0 bytes.
Library pages = 1056.934 MB.

