
Note: No compatibility mode selected!


Circuit: * ================================================================

binary raw file "results/peak_outer_race.raw"
Doing analysis at TEMP = 27.000000 and TNOM = 27.000000

Using SPARSE 1.3 as Direct Linear Solver
No. of Data Columns : 42  
Using transient initial conditions

No. of Data Rows : 84523

Total analysis time (seconds) = 3597.57

Total elapsed time (seconds) = 3683.399 

Total DRAM available = 31720.152 MB.
DRAM currently available = 23814.684 MB.
Maximum ngspice program size =  997.793 MB.
Current ngspice program size =  980.512 MB.

Shared ngspice pages =   10.203 MB.
Text (code) pages =    6.156 MB.
Stack = 0 bytes.
Library pages =  978.547 MB.

