
Note: No compatibility mode selected!


Circuit: * ================================================================

binary raw file "results/peak_normal.raw"
Doing analysis at TEMP = 27.000000 and TNOM = 27.000000

Using SPARSE 1.3 as Direct Linear Solver
No. of Data Columns : 42  
Using transient initial conditions

No. of Data Rows : 71749

Total analysis time (seconds) = 2613.65

Total elapsed time (seconds) = 2696.663 

Total DRAM available = 31720.152 MB.
DRAM currently available = 22571.191 MB.
Maximum ngspice program size =  997.781 MB.
Current ngspice program size =  980.555 MB.

Shared ngspice pages =   10.254 MB.
Text (code) pages =    6.156 MB.
Stack = 0 bytes.
Library pages =  978.535 MB.

