
Note: No compatibility mode selected!


Circuit: * ============================================================

Doing analysis at TEMP = 27.000000 and TNOM = 27.000000

Using SPARSE 1.3 as Direct Linear Solver
Using transient initial conditions

No. of Data Rows : 5395

  Measurements for Transient Analysis

vout_final          =  1.037688e+00
vout_avg            =  1.037729e+00 from=  3.000000e-02 to=  4.900598e-02
vin_peak            =  9.499819e-01 at=  1.254279e-03

Envelope TL testbench complete
Doing analysis at TEMP = 27.000000 and TNOM = 27.000000

Using SPARSE 1.3 as Direct Linear Solver
Using transient initial conditions

No. of Data Rows : 5395

  Measurements for Transient Analysis

vout_final          =  1.037688e+00
vout_avg            =  1.037729e+00 from=  3.000000e-02 to=  4.900598e-02
vin_peak            =  9.499819e-01 at=  1.254279e-03


Total analysis time (seconds) = 0.799

Total elapsed time (seconds) = 1.452 

Total DRAM available = 31720.152 MB.
DRAM currently available = 26586.859 MB.
Maximum ngspice program size =   52.078 MB.
Current ngspice program size =   35.715 MB.

Shared ngspice pages =   10.945 MB.
Text (code) pages =    6.156 MB.
Stack = 0 bytes.
Library pages =   32.832 MB.

